Setting datasheet to cace/sky130_cm_ip__biasgen.txt
Working directory set to cace/.. (/home/cmaier/EDA/efabless/chipalooza2024/sky130_cm_ip__biasgen)
Simulating parameter gm_go_plot
Checking for out-of-date schematic-captured netlists.
Checking for out-of-date testbench netlist tb_nfet_01v8_gotest.spice.
Evaluating electrical parameter gm_go_plot
Pins in schematic: ['avdd', 'Vpb', 'Vpc', 'Iout', 'Ibin', 'avss']
Pins in datasheet: avdd avss Ibin Vbp Vbc Iout 
File ./netlist/schematic/sky130_cm_ip__biasgen.spice subcircuit sky130_cm_ip__biasgen does not have expected pins!
Error:  Unknown/unhandled condition name "-egain"
Error:  Unknown/unhandled condition name "l"
Error:  Unknown/unhandled condition name "nf"
Error:  Unknown/unhandled condition name "vdinc"
Warning: Variable {-egain} had no substitution
Warning: Variable {l} had no substitution
Warning: Variable {nf} had no substitution
Warning: Variable {vdinc} had no substitution
Launching Simulations
Total files to simulate: 1
Running: ngspice  ngspice/gm_go_plot_1.spice
Current working directory is: /home/cmaier/EDA/efabless/chipalooza2024/sky130_cm_ip__biasgen
******
** ngspice-42 : Circuit level simulation program
** Compiled with Sparse Direct Linear Solver
** The U. C. Berkeley CAD Group
** Copyright 1985-1994, Regents of the University of California.
** Copyright 2001-2023, The ngspice team.
** Please get your ngspice manual from https://ngspice.sourceforge.io/docs.html
** Please file your bug-reports at http://ngspice.sourceforge.net/bugrep.html
** Creation Date: Sun Mar 10 02:59:47 UTC 2024
******

Note: Compatibility modes selected: hs a


Circuit: ** sch_path: /home/cmaier/eda/efabless/chipalooza2024/sky130_cm_ip__biasgen/cace/tb_nfet_01v8_gotest.sch

option SCALE: Scale is set to 1e-06 for instance and model parameters
option SCALE: Scale is set to 1e-06 for instance and model parameters
option SCALE: Scale is set to 1e-06 for instance and model parameters
option SCALE: Scale is set to 1e-06 for instance and model parameters
Doing analysis at TEMP = 27.000000 and TNOM = 27.000000

 Reference value :  1.00000e-01
No. of Data Rows : 1901
binary raw file "nfet_01v8_gotest.raw"
ngspice-42 done
Files to simulate method gm_go_plot: 1
Completed 1 of 1 simulations
Plotting results
Simulation of gm_go_plot has completed.
Simulating parameter gm_id_plot
Checking for out-of-date schematic-captured netlists.
Checking for out-of-date testbench netlist tb_nfet_01v8_gmtest.spice.
Evaluating electrical parameter gm_id_plot
Pins in schematic: ['avdd', 'Vpb', 'Vpc', 'Iout', 'Ibin', 'avss']
Pins in datasheet: avdd avss Ibin Vbp Vbc Iout 
File ./netlist/schematic/sky130_cm_ip__biasgen.spice subcircuit sky130_cm_ip__biasgen does not have expected pins!
Error:  Unknown/unhandled condition name "-egain"
Error:  Unknown/unhandled condition name "l"
Error:  Unknown/unhandled condition name "nf"
Error:  Unknown/unhandled condition name "iinc"
Warning: Variable {-egain} had no substitution
Warning: Variable {id} had no substitution
Warning: Variable {l} had no substitution
Warning: Variable {nf} had no substitution
Warning: Variable {iinc} had no substitution
Launching Simulations
Total files to simulate: 1
Running: ngspice  ngspice/gm_id_plot_1.spice
Current working directory is: /home/cmaier/EDA/efabless/chipalooza2024/sky130_cm_ip__biasgen
******
** ngspice-42 : Circuit level simulation program
** Compiled with Sparse Direct Linear Solver
** The U. C. Berkeley CAD Group
** Copyright 1985-1994, Regents of the University of California.
** Copyright 2001-2023, The ngspice team.
** Please get your ngspice manual from https://ngspice.sourceforge.io/docs.html
** Please file your bug-reports at http://ngspice.sourceforge.net/bugrep.html
** Creation Date: Sun Mar 10 02:59:47 UTC 2024
******

Note: Compatibility modes selected: hs a


Circuit: ** sch_path: /home/cmaier/eda/efabless/chipalooza2024/sky130_cm_ip__biasgen/cace/tb_nfet_01v8_gmtest.sch

option SCALE: Scale is set to 1e-06 for instance and model parameters
option SCALE: Scale is set to 1e-06 for instance and model parameters
option SCALE: Scale is set to 1e-06 for instance and model parameters
option SCALE: Scale is set to 1e-06 for instance and model parameters
Doing analysis at TEMP = 27.000000 and TNOM = 27.000000

 Reference value :  1.00000e-09
No. of Data Rows : 1000
binary raw file "nfet_01v8_gotest.raw"
ngspice-42 done
Files to simulate method gm_id_plot: 1
Completed 1 of 1 simulations
Plotting results
Simulation of gm_id_plot has completed.
Simulating parameter Vg_plot
Checking for out-of-date schematic-captured netlists.
Checking for out-of-date testbench netlist tb_nfet_01v8_gmtest.spice.
Evaluating electrical parameter Vg_plot
Pins in schematic: ['avdd', 'Vpb', 'Vpc', 'Iout', 'Ibin', 'avss']
Pins in datasheet: avdd avss Ibin Vbp Vbc Iout 
File ./netlist/schematic/sky130_cm_ip__biasgen.spice subcircuit sky130_cm_ip__biasgen does not have expected pins!
Error:  Unknown/unhandled condition name "-egain"
Error:  Unknown/unhandled condition name "l"
Error:  Unknown/unhandled condition name "nf"
Error:  Unknown/unhandled condition name "iinc"
Warning: Variable {-egain} had no substitution
Warning: Variable {id} had no substitution
Warning: Variable {l} had no substitution
Warning: Variable {nf} had no substitution
Warning: Variable {iinc} had no substitution
Launching Simulations
Total files to simulate: 1
Running: ngspice  ngspice/Vg_plot_1.spice
Current working directory is: /home/cmaier/EDA/efabless/chipalooza2024/sky130_cm_ip__biasgen
******
** ngspice-42 : Circuit level simulation program
** Compiled with Sparse Direct Linear Solver
** The U. C. Berkeley CAD Group
** Copyright 1985-1994, Regents of the University of California.
** Copyright 2001-2023, The ngspice team.
** Please get your ngspice manual from https://ngspice.sourceforge.io/docs.html
** Please file your bug-reports at http://ngspice.sourceforge.net/bugrep.html
** Creation Date: Sun Mar 10 02:59:47 UTC 2024
******

Note: Compatibility modes selected: hs a


Circuit: ** sch_path: /home/cmaier/eda/efabless/chipalooza2024/sky130_cm_ip__biasgen/cace/tb_nfet_01v8_gmtest.sch

option SCALE: Scale is set to 1e-06 for instance and model parameters
option SCALE: Scale is set to 1e-06 for instance and model parameters
option SCALE: Scale is set to 1e-06 for instance and model parameters
option SCALE: Scale is set to 1e-06 for instance and model parameters
Doing analysis at TEMP = 27.000000 and TNOM = 27.000000

 Reference value :  1.00000e-09
No. of Data Rows : 1000
binary raw file "nfet_01v8_gotest.raw"
ngspice-42 done
Files to simulate method Vg_plot: 1
Completed 1 of 1 simulations
Plotting results
Simulation of Vg_plot has completed.
Simulating parameter Vg_nmos
Checking for out-of-date schematic-captured netlists.
Checking for out-of-date testbench netlist tb_nfet_01v8_gmtest.spice.
Evaluating electrical parameter Vg_nmos
Pins in schematic: ['avdd', 'Vpb', 'Vpc', 'Iout', 'Ibin', 'avss']
Pins in datasheet: avdd avss Ibin Vbp Vbc Iout 
File ./netlist/schematic/sky130_cm_ip__biasgen.spice subcircuit sky130_cm_ip__biasgen does not have expected pins!
Error:  Unknown/unhandled condition name "-egain"
Error:  Unknown/unhandled condition name "l"
Error:  Unknown/unhandled condition name "nf"
Error:  Unknown/unhandled condition name "iinc"
Warning: Variable {-egain} had no substitution
Warning: Variable {id} had no substitution
Warning: Variable {l} had no substitution
Warning: Variable {nf} had no substitution
Warning: Variable {iinc} had no substitution
Warning: Variable {-egain} had no substitution
Warning: Variable {id} had no substitution
Warning: Variable {l} had no substitution
Warning: Variable {nf} had no substitution
Warning: Variable {iinc} had no substitution
Warning: Variable {-egain} had no substitution
Warning: Variable {id} had no substitution
Warning: Variable {l} had no substitution
Warning: Variable {nf} had no substitution
Warning: Variable {iinc} had no substitution
Warning: Variable {-egain} had no substitution
Warning: Variable {id} had no substitution
Warning: Variable {l} had no substitution
Warning: Variable {nf} had no substitution
Warning: Variable {iinc} had no substitution
Warning: Variable {-egain} had no substitution
Warning: Variable {id} had no substitution
Warning: Variable {l} had no substitution
Warning: Variable {nf} had no substitution
Warning: Variable {iinc} had no substitution
Warning: Variable {-egain} had no substitution
Warning: Variable {id} had no substitution
Warning: Variable {l} had no substitution
Warning: Variable {nf} had no substitution
Warning: Variable {iinc} had no substitution
Warning: Variable {-egain} had no substitution
Warning: Variable {id} had no substitution
Warning: Variable {l} had no substitution
Warning: Variable {nf} had no substitution
Warning: Variable {iinc} had no substitution
Warning: Variable {-egain} had no substitution
Warning: Variable {id} had no substitution
Warning: Variable {l} had no substitution
Warning: Variable {nf} had no substitution
Warning: Variable {iinc} had no substitution
Warning: Variable {-egain} had no substitution
Warning: Variable {id} had no substitution
Warning: Variable {l} had no substitution
Warning: Variable {nf} had no substitution
Warning: Variable {iinc} had no substitution
Launching Simulations
Total files to simulate: 9
Running: ngspice  ngspice/Vg_nmos_2.spice
Current working directory is: /home/cmaier/EDA/efabless/chipalooza2024/sky130_cm_ip__biasgen
******
** ngspice-42 : Circuit level simulation program
** Compiled with Sparse Direct Linear Solver
** The U. C. Berkeley CAD Group
** Copyright 1985-1994, Regents of the University of California.
** Copyright 2001-2023, The ngspice team.
** Please get your ngspice manual from https://ngspice.sourceforge.io/docs.html
** Please file your bug-reports at http://ngspice.sourceforge.net/bugrep.html
** Creation Date: Sun Mar 10 02:59:47 UTC 2024
******

Note: Compatibility modes selected: hs a


Circuit: ** sch_path: /home/cmaier/eda/efabless/chipalooza2024/sky130_cm_ip__biasgen/cace/tb_nfet_01v8_gmtest.sch

option SCALE: Scale is set to 1e-06 for instance and model parameters
option SCALE: Scale is set to 1e-06 for instance and model parameters
option SCALE: Scale is set to 1e-06 for instance and model parameters
option SCALE: Scale is set to 1e-06 for instance and model parameters
Doing analysis at TEMP = -40.000000 and TNOM = 27.000000

Running: ngspice  ngspice/Vg_nmos_1.spice
Current working directory is: /home/cmaier/EDA/efabless/chipalooza2024/sky130_cm_ip__biasgen
******
** ngspice-42 : Circuit level simulation program
** Compiled with Sparse Direct Linear Solver
** The U. C. Berkeley CAD Group
** Copyright 1985-1994, Regents of the University of California.
** Copyright 2001-2023, The ngspice team.
** Please get your ngspice manual from https://ngspice.sourceforge.io/docs.html
** Please file your bug-reports at http://ngspice.sourceforge.net/bugrep.html
** Creation Date: Sun Mar 10 02:59:47 UTC 2024
******

Note: Compatibility modes selected: hs a


Circuit: ** sch_path: /home/cmaier/eda/efabless/chipalooza2024/sky130_cm_ip__biasgen/cace/tb_nfet_01v8_gmtest.sch

option SCALE: Scale is set to 1e-06 for instance and model parameters
option SCALE: Scale is set to 1e-06 for instance and model parameters
option SCALE: Scale is set to 1e-06 for instance and model parameters
option SCALE: Scale is set to 1e-06 for instance and model parameters
Doing analysis at TEMP = -40.000000 and TNOM = 27.000000

Running: ngspice  ngspice/Vg_nmos_3.spice
Current working directory is: /home/cmaier/EDA/efabless/chipalooza2024/sky130_cm_ip__biasgen
******
** ngspice-42 : Circuit level simulation program
** Compiled with Sparse Direct Linear Solver
** The U. C. Berkeley CAD Group
** Copyright 1985-1994, Regents of the University of California.
** Copyright 2001-2023, The ngspice team.
** Please get your ngspice manual from https://ngspice.sourceforge.io/docs.html
** Please file your bug-reports at http://ngspice.sourceforge.net/bugrep.html
** Creation Date: Sun Mar 10 02:59:47 UTC 2024
******

Note: Compatibility modes selected: hs a


Circuit: ** sch_path: /home/cmaier/eda/efabless/chipalooza2024/sky130_cm_ip__biasgen/cace/tb_nfet_01v8_gmtest.sch

option SCALE: Scale is set to 1e-06 for instance and model parameters
option SCALE: Scale is set to 1e-06 for instance and model parameters
option SCALE: Scale is set to 1e-06 for instance and model parameters
option SCALE: Scale is set to 1e-06 for instance and model parameters
Doing analysis at TEMP = -40.000000 and TNOM = 27.000000

Running: ngspice  ngspice/Vg_nmos_5.spice
Current working directory is: /home/cmaier/EDA/efabless/chipalooza2024/sky130_cm_ip__biasgen
******
** ngspice-42 : Circuit level simulation program
** Compiled with Sparse Direct Linear Solver
** The U. C. Berkeley CAD Group
** Copyright 1985-1994, Regents of the University of California.
** Copyright 2001-2023, The ngspice team.
** Please get your ngspice manual from https://ngspice.sourceforge.io/docs.html
** Please file your bug-reports at http://ngspice.sourceforge.net/bugrep.html
** Creation Date: Sun Mar 10 02:59:47 UTC 2024
******

Note: Compatibility modes selected: hs a


Circuit: ** sch_path: /home/cmaier/eda/efabless/chipalooza2024/sky130_cm_ip__biasgen/cace/tb_nfet_01v8_gmtest.sch

option SCALE: Scale is set to 1e-06 for instance and model parameters
option SCALE: Scale is set to 1e-06 for instance and model parameters
option SCALE: Scale is set to 1e-06 for instance and model parameters
option SCALE: Scale is set to 1e-06 for instance and model parameters
Doing analysis at TEMP = 25.000000 and TNOM = 27.000000

Running: ngspice  ngspice/Vg_nmos_4.spice
Current working directory is: /home/cmaier/EDA/efabless/chipalooza2024/sky130_cm_ip__biasgen
******
** ngspice-42 : Circuit level simulation program
** Compiled with Sparse Direct Linear Solver
** The U. C. Berkeley CAD Group
** Copyright 1985-1994, Regents of the University of California.
** Copyright 2001-2023, The ngspice team.
** Please get your ngspice manual from https://ngspice.sourceforge.io/docs.html
** Please file your bug-reports at http://ngspice.sourceforge.net/bugrep.html
** Creation Date: Sun Mar 10 02:59:47 UTC 2024
******

Note: Compatibility modes selected: hs a


Circuit: ** sch_path: /home/cmaier/eda/efabless/chipalooza2024/sky130_cm_ip__biasgen/cace/tb_nfet_01v8_gmtest.sch

option SCALE: Scale is set to 1e-06 for instance and model parameters
option SCALE: Scale is set to 1e-06 for instance and model parameters
option SCALE: Scale is set to 1e-06 for instance and model parameters
option SCALE: Scale is set to 1e-06 for instance and model parameters
Doing analysis at TEMP = 25.000000 and TNOM = 27.000000

 Reference value :  1.00000e-09
No. of Data Rows : 1000
binary raw file "nfet_01v8_gotest.raw"
ngspice-42 done
Running: ngspice  ngspice/Vg_nmos_7.spice
Current working directory is: /home/cmaier/EDA/efabless/chipalooza2024/sky130_cm_ip__biasgen
******
** ngspice-42 : Circuit level simulation program
** Compiled with Sparse Direct Linear Solver
** The U. C. Berkeley CAD Group
** Copyright 1985-1994, Regents of the University of California.
** Copyright 2001-2023, The ngspice team.
** Please get your ngspice manual from https://ngspice.sourceforge.io/docs.html
** Please file your bug-reports at http://ngspice.sourceforge.net/bugrep.html
** Creation Date: Sun Mar 10 02:59:47 UTC 2024
******

Note: Compatibility modes selected: hs a


Circuit: ** sch_path: /home/cmaier/eda/efabless/chipalooza2024/sky130_cm_ip__biasgen/cace/tb_nfet_01v8_gmtest.sch

option SCALE: Scale is set to 1e-06 for instance and model parameters
option SCALE: Scale is set to 1e-06 for instance and model parameters
option SCALE: Scale is set to 1e-06 for instance and model parameters
option SCALE: Scale is set to 1e-06 for instance and model parameters
Doing analysis at TEMP = 85.000000 and TNOM = 27.000000

Running: ngspice  ngspice/Vg_nmos_6.spice
Current working directory is: /home/cmaier/EDA/efabless/chipalooza2024/sky130_cm_ip__biasgen
******
** ngspice-42 : Circuit level simulation program
** Compiled with Sparse Direct Linear Solver
** The U. C. Berkeley CAD Group
** Copyright 1985-1994, Regents of the University of California.
** Copyright 2001-2023, The ngspice team.
** Please get your ngspice manual from https://ngspice.sourceforge.io/docs.html
** Please file your bug-reports at http://ngspice.sourceforge.net/bugrep.html
** Creation Date: Sun Mar 10 02:59:47 UTC 2024
******

Note: Compatibility modes selected: hs a


Circuit: ** sch_path: /home/cmaier/eda/efabless/chipalooza2024/sky130_cm_ip__biasgen/cace/tb_nfet_01v8_gmtest.sch

option SCALE: Scale is set to 1e-06 for instance and model parameters
option SCALE: Scale is set to 1e-06 for instance and model parameters
option SCALE: Scale is set to 1e-06 for instance and model parameters
option SCALE: Scale is set to 1e-06 for instance and model parameters
Doing analysis at TEMP = 25.000000 and TNOM = 27.000000

 Reference value :  1.00000e-09
No. of Data Rows : 1000
binary raw file "nfet_01v8_gotest.raw"
ngspice-42 done
 Reference value :  1.00000e-09
No. of Data Rows : 1000
binary raw file "nfet_01v8_gotest.raw"
ngspice-42 done
 Reference value :  1.00000e-09
No. of Data Rows : 1000
binary raw file "nfet_01v8_gotest.raw"
ngspice-42 done
 Reference value :  1.00000e-09
No. of Data Rows : 1000
binary raw file "nfet_01v8_gotest.raw"
ngspice-42 done
 Reference value :  1.00000e-09
No. of Data Rows : 1000
binary raw file "nfet_01v8_gotest.raw"
ngspice-42 done
 Reference value :  1.00000e-09
No. of Data Rows : 1000
binary raw file "nfet_01v8_gotest.raw"
ngspice-42 done
Running: ngspice  ngspice/Vg_nmos_8.spice
Current working directory is: /home/cmaier/EDA/efabless/chipalooza2024/sky130_cm_ip__biasgen
******
** ngspice-42 : Circuit level simulation program
** Compiled with Sparse Direct Linear Solver
** The U. C. Berkeley CAD Group
** Copyright 1985-1994, Regents of the University of California.
** Copyright 2001-2023, The ngspice team.
** Please get your ngspice manual from https://ngspice.sourceforge.io/docs.html
** Please file your bug-reports at http://ngspice.sourceforge.net/bugrep.html
** Creation Date: Sun Mar 10 02:59:47 UTC 2024
******

Note: Compatibility modes selected: hs a


Circuit: ** sch_path: /home/cmaier/eda/efabless/chipalooza2024/sky130_cm_ip__biasgen/cace/tb_nfet_01v8_gmtest.sch

option SCALE: Scale is set to 1e-06 for instance and model parameters
option SCALE: Scale is set to 1e-06 for instance and model parameters
option SCALE: Scale is set to 1e-06 for instance and model parameters
option SCALE: Scale is set to 1e-06 for instance and model parameters
Doing analysis at TEMP = 85.000000 and TNOM = 27.000000

 Reference value :  1.00000e-09
No. of Data Rows : 1000
binary raw file "nfet_01v8_gotest.raw"
ngspice-42 done
Running: ngspice  ngspice/Vg_nmos_9.spice
Current working directory is: /home/cmaier/EDA/efabless/chipalooza2024/sky130_cm_ip__biasgen
******
** ngspice-42 : Circuit level simulation program
** Compiled with Sparse Direct Linear Solver
** The U. C. Berkeley CAD Group
** Copyright 1985-1994, Regents of the University of California.
** Copyright 2001-2023, The ngspice team.
** Please get your ngspice manual from https://ngspice.sourceforge.io/docs.html
** Please file your bug-reports at http://ngspice.sourceforge.net/bugrep.html
** Creation Date: Sun Mar 10 02:59:47 UTC 2024
******

Note: Compatibility modes selected: hs a


Circuit: ** sch_path: /home/cmaier/eda/efabless/chipalooza2024/sky130_cm_ip__biasgen/cace/tb_nfet_01v8_gmtest.sch

option SCALE: Scale is set to 1e-06 for instance and model parameters
option SCALE: Scale is set to 1e-06 for instance and model parameters
option SCALE: Scale is set to 1e-06 for instance and model parameters
option SCALE: Scale is set to 1e-06 for instance and model parameters
Doing analysis at TEMP = 85.000000 and TNOM = 27.000000

 Reference value :  1.00000e-09
No. of Data Rows : 1000
binary raw file "nfet_01v8_gotest.raw"
ngspice-42 done
Files to simulate method Vg_nmos: 9
Completed 9 of 9 simulations
Collating results
Simulation of Vg_nmos has completed.
no datasheet_anno, so there are no results to save.
