Setting datasheet to cace/sky130_cm_ip__biasgen.txt
Working directory set to cace/.. (/home/cmaier/EDA/efabless/chipalooza2024/sky130_cm_ip__biasgen)
Simulating parameter Vg
Checking for out-of-date schematic-captured netlists.
Checking for out-of-date testbench netlist tb_nfet_01v8_gmtest.spice.
Schematic netlist is older than top-level schematic
Generating testbench netlist tb_nfet_01v8_gmtest.spice from schematic. . .
Calling xschem to generate netlist
Evaluating electrical parameter Vg
Error:  Unknown/unhandled condition name "-egain"
Error:  Unknown/unhandled condition name "l"
Error:  Unknown/unhandled condition name "nf"
Error:  Unknown/unhandled condition name "iinc"
Warning: Variable {-egain} had no substitution
Warning: Variable {id} had no substitution
Warning: Variable {l} had no substitution
Warning: Variable {nf} had no substitution
Warning: Variable {iinc} had no substitution
Launching Simulations
Total files to simulate: 1
Running: ngspice  ngspice/Vg_1.spice
Current working directory is: /home/cmaier/EDA/efabless/chipalooza2024/sky130_cm_ip__biasgen
******
** ngspice-42 : Circuit level simulation program
** Compiled with Sparse Direct Linear Solver
** The U. C. Berkeley CAD Group
** Copyright 1985-1994, Regents of the University of California.
** Copyright 2001-2023, The ngspice team.
** Please get your ngspice manual from https://ngspice.sourceforge.io/docs.html
** Please file your bug-reports at http://ngspice.sourceforge.net/bugrep.html
** Creation Date: Sun Mar 10 02:59:47 UTC 2024
******

Note: Compatibility modes selected: hs a


Circuit: ** sch_path: /home/cmaier/eda/efabless/chipalooza2024/sky130_cm_ip__biasgen/cace/tb_nfet_01v8_gmtest.sch

option SCALE: Scale is set to 1e-06 for instance and model parameters
option SCALE: Scale is set to 1e-06 for instance and model parameters
option SCALE: Scale is set to 1e-06 for instance and model parameters
option SCALE: Scale is set to 1e-06 for instance and model parameters
Doing analysis at TEMP = 27.000000 and TNOM = 27.000000

 Reference value :  1.00000e-09
 Reference value :  3.64300e-06
 Reference value :  6.51100e-06
 Reference value :  9.41200e-06
No. of Data Rows : 10000
binary raw file "nfet_01v8_gotest.raw"
ngspice-42 done
Files to simulate method Vg: 1
Completed 1 of 1 simulations
Collating results
Simulation of Vg has completed.
no datasheet_anno, so there are no results to save.
