Setting datasheet to cace/sky130_cm_ip__biasgen.txt
Working directory set to cace/.. (/home/cmaier/EDA/efabless/chipalooza2024/sky130_cm_ip__biasgen)
Simulating parameter Vg_plot
Checking for out-of-date schematic-captured netlists.
Netlist is newer than top-level schematic, but must check subcircuits
Checking for out-of-date testbench netlist tb_nfet_01v8_gmtest.spice.
Schematic netlist is older than top-level schematic
---Schematic datestamp = 2024-03-21
---Netlist   datestamp = 2024-03-21
Generating testbench netlist tb_nfet_01v8_gmtest.spice from schematic. . .
Calling xschem to generate netlist
Executing: xschem -n -s -r -x -q --tcl append XSCHEM_LIBRARY_PATH :/home/cmaier/EDA/efabless/chipalooza2024/sky130_cm_ip__biasgen ; append XSCHEM_LIBRARY_PATH :cace --rcfile /usr/local/share/pdk/sky130A/libs.tech/xschem/xschemrc -o cace -N tb_nfet_01v8_gmtest.spice cace/tb_nfet_01v8_gmtest.sch
Evaluating electrical parameter Vg_plot
Generating simulation files for parameter Vg_plot
Error:  Unknown/unhandled condition name "-egain"
Error:  Unknown/unhandled condition name "l"
Error:  Unknown/unhandled condition name "nf"
Error:  Unknown/unhandled condition name "iinc"
Full condition list (lcondlist) is:
   id vdref corner temperature
No collation in parameter Vg_plot
New sweeps entry id found.
Warning: Variable {-egain} had no substitution
Warning: Variable {id} had no substitution
Warning: Variable {l} had no substitution
Warning: Variable {nf} had no substitution
Warning: Variable {iinc} had no substitution
Launching Simulations
Total files to simulate: 1
Running: ngspice  ngspice/Vg_plot_1.spice
Current working directory is: /home/cmaier/EDA/efabless/chipalooza2024/sky130_cm_ip__biasgen
******
** ngspice-42 : Circuit level simulation program
** Compiled with Sparse Direct Linear Solver
** The U. C. Berkeley CAD Group
** Copyright 1985-1994, Regents of the University of California.
** Copyright 2001-2023, The ngspice team.
** Please get your ngspice manual from https://ngspice.sourceforge.io/docs.html
** Please file your bug-reports at http://ngspice.sourceforge.net/bugrep.html
** Creation Date: Sun Mar 10 02:59:47 UTC 2024
******

Note: Compatibility modes selected: hs a


Circuit: ** sch_path: /home/cmaier/eda/efabless/chipalooza2024/sky130_cm_ip__biasgen/cace/tb_nfet_01v8_gmtest.sch

option SCALE: Scale is set to 1e-06 for instance and model parameters
option SCALE: Scale is set to 1e-06 for instance and model parameters
option SCALE: Scale is set to 1e-06 for instance and model parameters
option SCALE: Scale is set to 1e-06 for instance and model parameters
Doing analysis at TEMP = 27.000000 and TNOM = 27.000000

 Reference value :  1.00000e-09
 Reference value :  3.21600e-06
 Reference value :  6.41900e-06
 Reference value :  9.21300e-06
No. of Data Rows : 10000
binary raw file "nfet_01v8_gotest.raw"
ngspice-42 done
Files to simulate method Vg_plot: 1
Completed 1 of 1 simulations
Plotting results
Processing 2 plot variables.
Processing 10000 data points.
Truncating data with step size 10
Watchproc found nothing in the queue; will wait longer.
Watchproc found nothing in the queue; will wait longer.
Watchproc found nothing in the queue; will wait longer.
Watchproc found nothing in the queue; will wait longer.
Watchproc found nothing in the queue; will wait longer.
Watchproc found nothing in the queue; will wait longer.
Watchproc found nothing in the queue; will wait longer.
Simulation of Vg_plot has completed.
Now waiting to join process
Simulating parameter Vg
Checking for out-of-date schematic-captured netlists.
Netlist is newer than top-level schematic, but must check subcircuits
Checking for out-of-date testbench netlist tb_nfet_01v8_gmtest.spice.
Netlist is newer than top-level schematic, but must check subcircuits
Evaluating electrical parameter Vg
Generating simulation files for parameter Vg
Error:  Unknown/unhandled condition name "-egain"
Error:  Unknown/unhandled condition name "l"
Error:  Unknown/unhandled condition name "nf"
Error:  Unknown/unhandled condition name "iinc"
Full condition list (lcondlist) is:
   id vdref corner temperature
No collation in parameter Vg
New sweeps entry id found.
Warning: Variable {-egain} had no substitution
Warning: Variable {id} had no substitution
Warning: Variable {l} had no substitution
Warning: Variable {nf} had no substitution
Warning: Variable {iinc} had no substitution
Warning: Variable {-egain} had no substitution
Warning: Variable {id} had no substitution
Warning: Variable {l} had no substitution
Warning: Variable {nf} had no substitution
Warning: Variable {iinc} had no substitution
Warning: Variable {-egain} had no substitution
Warning: Variable {id} had no substitution
Warning: Variable {l} had no substitution
Warning: Variable {nf} had no substitution
Warning: Variable {iinc} had no substitution
Warning: Variable {-egain} had no substitution
Warning: Variable {id} had no substitution
Warning: Variable {l} had no substitution
Warning: Variable {nf} had no substitution
Warning: Variable {iinc} had no substitution
Warning: Variable {-egain} had no substitution
Warning: Variable {id} had no substitution
Warning: Variable {l} had no substitution
Warning: Variable {nf} had no substitution
Warning: Variable {iinc} had no substitution
Warning: Variable {-egain} had no substitution
Warning: Variable {id} had no substitution
Warning: Variable {l} had no substitution
Warning: Variable {nf} had no substitution
Warning: Variable {iinc} had no substitution
Warning: Variable {-egain} had no substitution
Warning: Variable {id} had no substitution
Warning: Variable {l} had no substitution
Warning: Variable {nf} had no substitution
Warning: Variable {iinc} had no substitution
Warning: Variable {-egain} had no substitution
Warning: Variable {id} had no substitution
Warning: Variable {l} had no substitution
Warning: Variable {nf} had no substitution
Warning: Variable {iinc} had no substitution
Warning: Variable {-egain} had no substitution
Warning: Variable {id} had no substitution
Warning: Variable {l} had no substitution
Warning: Variable {nf} had no substitution
Warning: Variable {iinc} had no substitution
Launching Simulations
Total files to simulate: 9
Running: ngspice  ngspice/Vg_3.spice
Current working directory is: /home/cmaier/EDA/efabless/chipalooza2024/sky130_cm_ip__biasgen
******
** ngspice-42 : Circuit level simulation program
** Compiled with Sparse Direct Linear Solver
** The U. C. Berkeley CAD Group
** Copyright 1985-1994, Regents of the University of California.
** Copyright 2001-2023, The ngspice team.
** Please get your ngspice manual from https://ngspice.sourceforge.io/docs.html
** Please file your bug-reports at http://ngspice.sourceforge.net/bugrep.html
** Creation Date: Sun Mar 10 02:59:47 UTC 2024
******

Note: Compatibility modes selected: hs a


Circuit: ** sch_path: /home/cmaier/eda/efabless/chipalooza2024/sky130_cm_ip__biasgen/cace/tb_nfet_01v8_gmtest.sch

option SCALE: Scale is set to 1e-06 for instance and model parameters
option SCALE: Scale is set to 1e-06 for instance and model parameters
option SCALE: Scale is set to 1e-06 for instance and model parameters
option SCALE: Scale is set to 1e-06 for instance and model parameters
Doing analysis at TEMP = -40.000000 and TNOM = 27.000000

Running: ngspice  ngspice/Vg_6.spice
Current working directory is: /home/cmaier/EDA/efabless/chipalooza2024/sky130_cm_ip__biasgen
******
** ngspice-42 : Circuit level simulation program
** Compiled with Sparse Direct Linear Solver
** The U. C. Berkeley CAD Group
** Copyright 1985-1994, Regents of the University of California.
** Copyright 2001-2023, The ngspice team.
** Please get your ngspice manual from https://ngspice.sourceforge.io/docs.html
** Please file your bug-reports at http://ngspice.sourceforge.net/bugrep.html
** Creation Date: Sun Mar 10 02:59:47 UTC 2024
******

Note: Compatibility modes selected: hs a


Circuit: ** sch_path: /home/cmaier/eda/efabless/chipalooza2024/sky130_cm_ip__biasgen/cace/tb_nfet_01v8_gmtest.sch

option SCALE: Scale is set to 1e-06 for instance and model parameters
option SCALE: Scale is set to 1e-06 for instance and model parameters
option SCALE: Scale is set to 1e-06 for instance and model parameters
option SCALE: Scale is set to 1e-06 for instance and model parameters
Doing analysis at TEMP = 27.000000 and TNOM = 27.000000

Running: ngspice  ngspice/Vg_7.spice
Current working directory is: /home/cmaier/EDA/efabless/chipalooza2024/sky130_cm_ip__biasgen
******
** ngspice-42 : Circuit level simulation program
** Compiled with Sparse Direct Linear Solver
** The U. C. Berkeley CAD Group
** Copyright 1985-1994, Regents of the University of California.
** Copyright 2001-2023, The ngspice team.
** Please get your ngspice manual from https://ngspice.sourceforge.io/docs.html
** Please file your bug-reports at http://ngspice.sourceforge.net/bugrep.html
** Creation Date: Sun Mar 10 02:59:47 UTC 2024
******

Note: Compatibility modes selected: hs a


Circuit: ** sch_path: /home/cmaier/eda/efabless/chipalooza2024/sky130_cm_ip__biasgen/cace/tb_nfet_01v8_gmtest.sch

option SCALE: Scale is set to 1e-06 for instance and model parameters
option SCALE: Scale is set to 1e-06 for instance and model parameters
option SCALE: Scale is set to 1e-06 for instance and model parameters
option SCALE: Scale is set to 1e-06 for instance and model parameters
Doing analysis at TEMP = 130.000000 and TNOM = 27.000000

Running: ngspice  ngspice/Vg_4.spice
Current working directory is: /home/cmaier/EDA/efabless/chipalooza2024/sky130_cm_ip__biasgen
******
** ngspice-42 : Circuit level simulation program
** Compiled with Sparse Direct Linear Solver
** The U. C. Berkeley CAD Group
** Copyright 1985-1994, Regents of the University of California.
** Copyright 2001-2023, The ngspice team.
** Please get your ngspice manual from https://ngspice.sourceforge.io/docs.html
** Please file your bug-reports at http://ngspice.sourceforge.net/bugrep.html
** Creation Date: Sun Mar 10 02:59:47 UTC 2024
******

Note: Compatibility modes selected: hs a


Circuit: ** sch_path: /home/cmaier/eda/efabless/chipalooza2024/sky130_cm_ip__biasgen/cace/tb_nfet_01v8_gmtest.sch

option SCALE: Scale is set to 1e-06 for instance and model parameters
option SCALE: Scale is set to 1e-06 for instance and model parameters
option SCALE: Scale is set to 1e-06 for instance and model parameters
option SCALE: Scale is set to 1e-06 for instance and model parameters
Doing analysis at TEMP = 27.000000 and TNOM = 27.000000

Running: ngspice  ngspice/Vg_5.spice
Current working directory is: /home/cmaier/EDA/efabless/chipalooza2024/sky130_cm_ip__biasgen
******
** ngspice-42 : Circuit level simulation program
** Compiled with Sparse Direct Linear Solver
** The U. C. Berkeley CAD Group
** Copyright 1985-1994, Regents of the University of California.
** Copyright 2001-2023, The ngspice team.
** Please get your ngspice manual from https://ngspice.sourceforge.io/docs.html
** Please file your bug-reports at http://ngspice.sourceforge.net/bugrep.html
** Creation Date: Sun Mar 10 02:59:47 UTC 2024
******

Note: Compatibility modes selected: hs a


Circuit: ** sch_path: /home/cmaier/eda/efabless/chipalooza2024/sky130_cm_ip__biasgen/cace/tb_nfet_01v8_gmtest.sch

option SCALE: Scale is set to 1e-06 for instance and model parameters
option SCALE: Scale is set to 1e-06 for instance and model parameters
option SCALE: Scale is set to 1e-06 for instance and model parameters
option SCALE: Scale is set to 1e-06 for instance and model parameters
Doing analysis at TEMP = 27.000000 and TNOM = 27.000000

Running: ngspice  ngspice/Vg_1.spice
Current working directory is: /home/cmaier/EDA/efabless/chipalooza2024/sky130_cm_ip__biasgen
******
** ngspice-42 : Circuit level simulation program
** Compiled with Sparse Direct Linear Solver
** The U. C. Berkeley CAD Group
** Copyright 1985-1994, Regents of the University of California.
** Copyright 2001-2023, The ngspice team.
** Please get your ngspice manual from https://ngspice.sourceforge.io/docs.html
** Please file your bug-reports at http://ngspice.sourceforge.net/bugrep.html
** Creation Date: Sun Mar 10 02:59:47 UTC 2024
******

Note: Compatibility modes selected: hs a


Circuit: ** sch_path: /home/cmaier/eda/efabless/chipalooza2024/sky130_cm_ip__biasgen/cace/tb_nfet_01v8_gmtest.sch

option SCALE: Scale is set to 1e-06 for instance and model parameters
option SCALE: Scale is set to 1e-06 for instance and model parameters
option SCALE: Scale is set to 1e-06 for instance and model parameters
option SCALE: Scale is set to 1e-06 for instance and model parameters
Doing analysis at TEMP = -40.000000 and TNOM = 27.000000

Running: ngspice  ngspice/Vg_2.spice
Current working directory is: /home/cmaier/EDA/efabless/chipalooza2024/sky130_cm_ip__biasgen
******
** ngspice-42 : Circuit level simulation program
** Compiled with Sparse Direct Linear Solver
** The U. C. Berkeley CAD Group
** Copyright 1985-1994, Regents of the University of California.
** Copyright 2001-2023, The ngspice team.
** Please get your ngspice manual from https://ngspice.sourceforge.io/docs.html
** Please file your bug-reports at http://ngspice.sourceforge.net/bugrep.html
** Creation Date: Sun Mar 10 02:59:47 UTC 2024
******

Note: Compatibility modes selected: hs a


Circuit: ** sch_path: /home/cmaier/eda/efabless/chipalooza2024/sky130_cm_ip__biasgen/cace/tb_nfet_01v8_gmtest.sch

option SCALE: Scale is set to 1e-06 for instance and model parameters
option SCALE: Scale is set to 1e-06 for instance and model parameters
option SCALE: Scale is set to 1e-06 for instance and model parameters
option SCALE: Scale is set to 1e-06 for instance and model parameters
Doing analysis at TEMP = -40.000000 and TNOM = 27.000000

 Reference value :  1.00000e-09
 Reference value :  1.00000e-09
 Reference value :  1.00000e-09
 Reference value :  1.00000e-09
 Reference value :  1.00000e-09
 Reference value :  1.00000e-09
 Reference value :  9.79000e-07
 Reference value :  8.83000e-07
 Reference value :  1.00000e-09
 Reference value :  7.20000e-07
 Reference value :  3.47600e-06
 Reference value :  1.29000e-06
 Reference value :  3.55700e-06
 Reference value :  9.80000e-08
 Reference value :  6.14700e-06
 Reference value :  1.15900e-06
 Reference value :  1.04800e-06
 Reference value :  1.34900e-06
 Reference value :  4.85900e-06
 Reference value :  1.17200e-06
 Reference value :  4.18000e-07
 Reference value :  1.30800e-06
 Reference value :  3.33700e-06
 Reference value :  1.06500e-06
 Reference value :  2.29900e-06
 Reference value :  1.32100e-06
 Reference value :  4.91500e-06
 Reference value :  8.80900e-06
No. of Data Rows : 10000
binary raw file "nfet_01v8_gotest.raw"
ngspice-42 done
 Reference value :  4.36000e-07
 Reference value :  6.01900e-06
 Reference value :  6.52400e-06
 Reference value :  1.51200e-06
 Reference value :  2.41500e-06
 Reference value :  1.08300e-06
 Reference value :  5.89000e-07
 Reference value :  6.26200e-06
 Reference value :  7.46200e-06
 Reference value :  8.41300e-06
 Reference value :  1.52500e-06
 Reference value :  2.42700e-06
 Reference value :  1.10000e-06
 Reference value :  7.25800e-06
 Reference value :  6.06000e-07
 Reference value :  2.05900e-06
 Reference value :  1.53800e-06
 Reference value :  9.89900e-06
No. of Data Rows : 10000
binary raw file "nfet_01v8_gotest.raw"
ngspice-42 done
 Reference value :  7.73100e-06
 Reference value :  2.43800e-06
 Reference value :  9.39000e-07
 Reference value :  1.80400e-06
 Reference value :  3.34800e-06
 Reference value :  2.52600e-06
 Reference value :  9.57000e-07
 Reference value :  3.03700e-06
 Reference value :  3.96100e-06
 Reference value :  4.19300e-06
 Reference value :  3.75600e-06
 Reference value :  1.83800e-06
 Reference value :  9.10200e-06
No. of Data Rows : 10000
binary raw file "nfet_01v8_gotest.raw"
ngspice-42 done
 Reference value :  4.24800e-06
 Reference value :  4.34100e-06
 Reference value :  2.39500e-06
 Reference value :  5.81200e-06
 Reference value :  5.69600e-06
 Reference value :  3.97800e-06
 Reference value :  5.00500e-06
 Reference value :  7.61300e-06
 Reference value :  6.43100e-06
 Reference value :  5.62800e-06
 Reference value :  6.27000e-06
 Reference value :  7.14500e-06
 Reference value :  6.99200e-06
 Reference value :  9.92700e-06
No. of Data Rows : 10000
binary raw file "nfet_01v8_gotest.raw"
ngspice-42 done
 Reference value :  8.38700e-06
 Reference value :  8.04500e-06
 Reference value :  8.39500e-06
No. of Data Rows : 10000
binary raw file "nfet_01v8_gotest.raw"
ngspice-42 done
 Reference value :  9.29900e-06
No. of Data Rows : 10000
binary raw file "nfet_01v8_gotest.raw"
ngspice-42 done
 Reference value :  9.16800e-06
No. of Data Rows : 10000
binary raw file "nfet_01v8_gotest.raw"
ngspice-42 done
Running: ngspice  ngspice/Vg_9.spice
Current working directory is: /home/cmaier/EDA/efabless/chipalooza2024/sky130_cm_ip__biasgen
******
** ngspice-42 : Circuit level simulation program
** Compiled with Sparse Direct Linear Solver
** The U. C. Berkeley CAD Group
** Copyright 1985-1994, Regents of the University of California.
** Copyright 2001-2023, The ngspice team.
** Please get your ngspice manual from https://ngspice.sourceforge.io/docs.html
** Please file your bug-reports at http://ngspice.sourceforge.net/bugrep.html
** Creation Date: Sun Mar 10 02:59:47 UTC 2024
******

Note: Compatibility modes selected: hs a


Circuit: ** sch_path: /home/cmaier/eda/efabless/chipalooza2024/sky130_cm_ip__biasgen/cace/tb_nfet_01v8_gmtest.sch

option SCALE: Scale is set to 1e-06 for instance and model parameters
option SCALE: Scale is set to 1e-06 for instance and model parameters
option SCALE: Scale is set to 1e-06 for instance and model parameters
option SCALE: Scale is set to 1e-06 for instance and model parameters
Doing analysis at TEMP = 130.000000 and TNOM = 27.000000

Running: ngspice  ngspice/Vg_8.spice
Current working directory is: /home/cmaier/EDA/efabless/chipalooza2024/sky130_cm_ip__biasgen
******
** ngspice-42 : Circuit level simulation program
** Compiled with Sparse Direct Linear Solver
** The U. C. Berkeley CAD Group
** Copyright 1985-1994, Regents of the University of California.
** Copyright 2001-2023, The ngspice team.
** Please get your ngspice manual from https://ngspice.sourceforge.io/docs.html
** Please file your bug-reports at http://ngspice.sourceforge.net/bugrep.html
** Creation Date: Sun Mar 10 02:59:47 UTC 2024
******

Note: Compatibility modes selected: hs a


Circuit: ** sch_path: /home/cmaier/eda/efabless/chipalooza2024/sky130_cm_ip__biasgen/cace/tb_nfet_01v8_gmtest.sch

option SCALE: Scale is set to 1e-06 for instance and model parameters
option SCALE: Scale is set to 1e-06 for instance and model parameters
option SCALE: Scale is set to 1e-06 for instance and model parameters
option SCALE: Scale is set to 1e-06 for instance and model parameters
Doing analysis at TEMP = 130.000000 and TNOM = 27.000000

 Reference value :  1.00000e-09
 Reference value :  1.00000e-09
 Reference value :  2.98200e-06
 Reference value :  2.90300e-06
 Reference value :  5.99200e-06
 Reference value :  5.99300e-06
 Reference value :  9.07200e-06
No. of Data Rows : 10000
binary raw file "nfet_01v8_gotest.raw"
ngspice-42 done
 Reference value :  8.93100e-06
No. of Data Rows : 10000
binary raw file "nfet_01v8_gotest.raw"
ngspice-42 done
Files to simulate method Vg: 9
Completed 9 of 9 simulations
Collating results
Collating results for parameter Vg
Scaled results are:
(truncated due to length)
[482.98927000000003, 504.846195, 517.8075439999999, 527.101664, 534.376201, 540.360549, 545.454977, 549.894591, 553.831955, 557.3716499999999]
...
[813.715164, 813.732199, 813.749233, 813.766267, 813.7833009999999, 813.8003339999999, 813.817367, 813.8344, 813.8514329999999]
Scaled typical results are:
(truncated due to length)
[364.10211, 391.758915, 408.08505099999996, 419.749259, 428.84911, 436.32009700000003, 442.664497, 448.181805, 453.065725, 457.448801]
...
[855.233539, 855.2467409999999, 855.259942, 855.273142, 855.2863429999999, 855.299542, 855.312742, 855.3259410000001, 855.3391399999999]
Diagnostic:  find_limits
spectype = minimum
spec = 500
results = [482.98927000000003, 504.846195, 517.8075439999999, 527.101664, 534.376201, 540.360549, 545.454977, 549.894591, 553.831955, 557.3716499999999, 560.588501, 563.537906, 566.265761, 568.795983, 571.160525, 573.380219, 575.472203, 577.450742, 579.327831, 581.11365, 582.81691, 584.445125, 586.004821, 587.5017, 588.9407749999999, 590.326479, 591.662747, 592.953092, 594.200661, 595.408285, 596.5785209999999, 597.7136849999999, 598.815883, 599.891706, 600.9327129999999, 601.946196, 602.9336050000001, 603.896276, 604.835447, 605.752266, 606.6477970000001, 607.5230329999999, 608.3788979999999, 609.2162519999999, 610.035902, 610.838603, 611.6250600000001, 612.3959369999999, 613.1518580000001, 613.893408, 614.621141, 615.335578, 616.03721, 616.726503, 617.403895, 618.069805, 618.724626, 619.368735, 620.002486, 620.626218, 621.2402529999999, 621.844898, 622.440444, 623.02717, 623.6053430000001, 624.175216, 624.737031, 625.291022, 625.837409, 626.376406, 626.9082169999999, 627.433037, 627.9510539999999, 628.462447, 628.96739, 629.466049, 629.958583, 630.445146, 630.925887, 631.400948, 631.870465, 632.334572, 632.7933959999999, 633.2470599999999, 633.695683, 634.144275, 634.582737, 635.016526, 635.445743, 635.8704859999999, 636.290847, 636.706919, 637.118791, 637.5265479999999, 637.930274, 638.3300499999999, 638.725954, 639.1180629999999, 639.50645, 639.8911879999999, 640.2723460000001, 640.649993, 641.024195, 641.395015, 641.762516, 642.12676, 642.487804, 642.845707, 643.2005240000001, 643.55231, 643.901119, 644.247001, 644.590008, 644.930188, 645.26759, 645.602259, 645.934242, 646.2635829999999, 646.590325, 646.91451, 647.23618, 647.5553739999999, 647.8721320000001, 648.1864939999999, 648.498494, 648.8081719999999, 649.115561, 649.420698, 649.723615, 650.0243479999999, 650.322927, 650.619386, 650.913755, 651.206064, 651.496344, 651.784624, 652.070932, 652.355297, 652.637745, 652.9183029999999, 653.196998, 653.473855, 653.7488999999999, 654.022157, 654.29365, 654.563403, 654.8314389999999, 655.09778, 655.3624500000001, 655.6254700000001, 655.88686, 656.146644, 656.404839, 656.661468, 656.91655, 657.1701039999999, 657.422149, 657.672704, 657.921788, 658.169418, 658.415612, 658.6603869999999, 658.903761, 659.1457509999999, 659.386372, 659.62564, 659.863573, 660.100185, 660.3354909999999, 660.5695069999999, 660.802248, 661.033728, 661.263961, 661.4929609999999, 661.720742, 661.947319, 662.172703, 662.3969079999999, 662.619948, 662.8418350000001, 663.0625799999999, 663.282198, 663.5006989999999, 663.718096, 663.939311, 664.1542529999999, 664.368139, 664.580981, 664.792788, 665.003571, 665.21334, 665.422104, 665.629874, 665.8366589999999, 666.042469, 666.247313, 666.4512, 666.654139, 666.85614, 667.057211, 667.257361, 667.456599, 667.6549339999999, 667.852373, 668.048925, 668.244598, 668.4394, 668.63334, 668.826425, 669.018663, 669.210062, 669.400629, 669.590371, 669.779297, 669.967413, 670.154727, 670.341246, 670.526976, 670.711925, 670.896099, 671.0795059999999, 671.2621509999999, 671.4440430000001, 671.625186, 671.8055870000001, 671.9852539999999, 672.164192, 672.342407, 672.519905, 672.696692, 672.8727759999999, 673.0481599999999, 673.222851, 673.396856, 673.570179, 673.742826, 673.914802, 674.086114, 674.256767, 674.4267649999999, 674.596115, 674.764821, 674.932889, 675.100323, 675.2671300000001, 675.433313, 675.598877, 675.763829, 675.928171, 676.09191, 676.255049, 676.417594, 676.5795489999999, 676.740919, 676.901707, 677.06192, 677.22156, 677.380632, 677.539141, 677.697091, 677.854486, 678.011329, 678.1676269999999, 678.323381, 678.478597, 678.6332779999999, 678.787428, 678.941051, 679.094152, 679.2467330000001, 679.398798, 679.550352, 679.7013979999999, 679.8519389999999, 680.001979, 680.156577, 680.3049249999999, 680.452842, 680.600329, 680.747387, 680.89402, 681.040228, 681.186014, 681.331379, 681.476325, 681.620854, 681.764967, 681.9086669999999, 682.051956, 682.194834, 682.337304, 682.4793679999999, 682.621027, 682.762284, 682.903139, 683.043594, 683.1836519999999, 683.323314, 683.462582, 683.601457, 683.739941, 683.878036, 684.0157439999999, 684.153066, 684.290003, 684.426558, 684.562733, 684.698528, 684.8287339999999, 684.963247, 685.097367, 685.231096, 685.3644370000001, 685.497392, 685.629964, 685.7621539999999, 685.893966, 686.025402, 686.1564639999999, 686.287154, 686.4174750000001, 686.547429, 686.677018, 686.806244, 686.9351099999999, 687.0636169999999, 687.191768, 687.319565, 687.44701, 687.574106, 687.700854, 687.827256, 687.953314, 688.079031, 688.2044080000001, 688.329448, 688.454152, 688.578522, 688.70256, 688.826269, 688.9496499999999, 689.0727039999999, 689.195435, 689.3178429999999, 689.439931, 689.5617000000001, 689.683152, 689.804289, 689.9251119999999, 690.045625, 690.1658269999999, 690.285721, 690.405309, 690.524592, 690.643573, 690.762252, 690.880631, 690.998712, 691.116497, 691.2339870000001, 691.351185, 691.46809, 691.584706, 691.7010329999999, 691.8170729999999, 691.932828, 692.0482999999999, 692.163489, 692.278397, 692.393026, 692.507377, 692.6214510000001, 692.735252, 692.848778, 692.962033, 693.075016, 693.187731, 693.300178, 693.4123589999999, 693.524275, 693.6359269999999, 693.747316, 693.8584450000001, 693.9693139999999, 694.079925, 694.1902789999999, 694.300378, 694.410222, 694.519813, 694.629152, 694.7382399999999, 694.8470799999999, 694.9556709999999, 695.064015, 695.172115, 695.2799689999999, 695.387581, 695.4949499999999, 695.602079, 695.708968, 695.815619, 695.9220329999999, 696.0282100000001, 696.134153, 696.239862, 696.345338, 696.4505829999999, 696.555597, 696.660382, 696.764939, 696.869269, 696.9733729999999, 697.0772509999999, 697.180906, 697.2843379999999, 697.387549, 697.490538, 697.593308, 697.6958589999999, 697.798193, 697.90031, 698.002211, 698.103898, 698.205371, 698.3066319999999, 698.4076809999999, 698.508519, 698.6091479999999, 698.7095679999999, 698.80978, 698.9097849999999, 699.009584, 699.109178, 699.2085689999999, 699.3077559999999, 699.406741, 699.5055249999999, 699.6041079999999, 699.702492, 699.8006770000001, 699.8986649999999, 699.9964560000001, 700.09405, 700.19145, 700.288656, 700.385668, 700.482487, 700.579115, 700.6755519999999, 700.771799, 700.867857, 700.963727, 701.059409, 701.154904, 701.250213, 701.345338, 701.440277, 701.5350339999999, 701.629608, 701.723999, 701.81821, 701.91224, 702.00609, 702.099762, 702.1932549999999, 702.286571, 702.3797109999999, 702.472674, 702.565463, 702.658077, 702.7505170000001, 702.8427839999999, 702.9348789999999, 703.026803, 703.1185559999999, 703.2101379999999, 703.301551, 703.392796, 703.4838719999999, 703.574781, 703.6655229999999, 703.7561, 703.846511, 703.9367570000001, 704.02684, 704.116759, 704.206516, 704.29611, 704.385543, 704.4748159999999, 704.563928, 704.652881, 704.741676, 704.830312, 704.9187909999999, 705.007112, 705.095278, 705.183288, 705.2711419999999, 705.358843, 705.446389, 705.5337820000001, 705.6210229999999, 705.708112, 705.795049, 705.881835, 705.968471, 706.0549579999999, 706.141295, 706.227484, 706.313525, 706.399418, 706.485165, 706.570765, 706.656219, 706.741529, 706.826694, 706.911714, 706.996592, 707.081326, 707.1659179999999, 707.250368, 707.334676, 707.4188439999999, 707.5028719999999, 707.586759, 707.6705079999999, 707.754117, 707.837589, 707.920923, 708.0041190000001, 708.087179, 708.170103, 708.25289, 708.335543, 708.4180610000001, 708.500445, 708.5826950000001, 708.664812, 708.746796, 708.828648, 708.910368, 708.991957, 709.073415, 709.1547419999999, 709.23594, 709.317008, 709.397947, 709.4787580000001, 709.559441, 709.639996, 709.720424, 709.800725, 709.8809, 709.9609489999999, 710.0408729999999, 710.1206719999999, 710.200346, 710.279897, 710.359324, 710.438627, 710.517808, 710.596867, 710.675804, 710.754619, 710.833313, 710.911887, 710.9903400000001, 711.068674, 711.146888, 711.224984, 711.30296, 711.3808190000001, 711.4585599999999, 711.540964, 711.61816, 711.6952479999999, 711.772229, 711.849104, 711.925873, 712.0025370000001, 712.0790959999999, 712.1555510000001, 712.231902, 712.3081500000001, 712.384296, 712.4603390000001, 712.536281, 712.612122, 712.687862, 712.763502, 712.839043, 712.914485, 712.989828, 713.065074, 713.140222, 713.215272, 713.290227, 713.3650849999999, 713.439848, 713.5145160000001, 713.589089, 713.6635679999999, 713.737954, 713.812247, 713.886446, 713.960554, 714.034571, 714.1084960000001, 714.18233, 714.256074, 714.329728, 714.4032930000001, 714.476769, 714.550157, 714.6234569999999, 714.6966689999999, 714.7697939999999, 714.8428329999999, 714.9157849999999, 714.9886519999999, 715.061434, 715.134131, 715.206743, 715.279272, 715.351717, 715.424079, 715.496358, 715.5685550000001, 715.6356969999999, 715.7073320000001, 715.778869, 715.8503099999999, 715.921653, 715.9929000000001, 716.06405, 716.135105, 716.206063, 716.276927, 716.3476949999999, 716.418369, 716.4889479999999, 716.559433, 716.629824, 716.700121, 716.7703250000001, 716.840436, 716.910454, 716.980379, 717.050212, 717.119953, 717.189603, 717.259161, 717.328628, 717.398004, 717.4672899999999, 717.536485, 717.605591, 717.6746059999999, 717.743532, 717.812369, 717.881116, 717.9497759999999, 718.0183460000001, 718.086828, 718.155223, 718.2235300000001, 718.291749, 718.359881, 718.427927, 718.4958849999999, 718.563758, 718.631544, 718.6992439999999, 718.7668590000001, 718.834388, 718.901832, 718.969192, 719.036466, 719.103657, 719.1707630000001, 719.237785, 719.304723, 719.371579, 719.43835, 719.50504, 719.571646, 719.63817, 719.704611, 719.7709709999999, 719.837249, 719.903445, 719.96956, 720.035594, 720.101547, 720.16742, 720.233212, 720.2989239999999, 720.364556, 720.430109, 720.4955819999999, 720.560976, 720.62629, 720.691526, 720.7566840000001, 720.821763, 720.886764, 720.951687, 721.016532, 721.0813, 721.14599, 721.210604, 721.275141, 721.339601, 721.403984, 721.4682919999999, 721.532523, 721.596679, 721.660759, 721.7247639999999, 721.788694, 721.852549, 721.916329, 721.9800339999999, 722.043666, 722.107223, 722.170706, 722.234115, 722.2974509999999, 722.360714, 722.423904, 722.4870199999999, 722.550064, 722.6130360000001, 722.675935, 722.738762, 722.801517, 722.864201, 722.9268129999999, 722.9893529999999, 723.051823, 723.114221, 723.1765489999999, 723.238806, 723.300993, 723.363109, 723.425156, 723.487133, 723.54904, 723.610878, 723.672646, 723.734346, 723.795976, 723.857538, 723.919031, 723.980456, 724.041813, 724.103102, 724.164323, 724.225477, 724.286563, 724.347582, 724.408534, 724.4694189999999, 724.5302369999999, 724.5909889999999, 724.651674, 724.7122929999999, 724.772846, 724.8333329999999, 724.8937549999999, 724.9541109999999, 725.014402, 725.074628, 725.134788, 725.194884, 725.254915, 725.314882, 725.374785, 725.4346229999999, 725.494398, 725.5541079999999, 725.613755, 725.6733389999999, 725.732859, 725.792316, 725.85171, 725.9110410000001, 725.97031, 726.029516, 726.08866, 726.147742, 726.206761, 726.265719, 726.324615, 726.38345, 726.442224, 726.500936, 726.559587, 726.618177, 726.676706, 726.7351749999999, 726.793584, 726.8519319999999, 726.91022, 726.9684480000001, 727.026617, 727.0847249999999, 727.142775, 727.2007639999999, 727.258695, 727.316567, 727.374379, 727.432133, 727.489829, 727.547466, 727.605045, 727.662565, 727.720028, 727.777432, 727.834779, 727.892069, 727.949301, 728.006476, 728.063593, 728.1206540000001, 728.177658, 728.234605, 728.2914959999999, 728.3483299999999, 728.405108, 728.46183, 728.5184959999999, 728.575106, 728.63166, 728.6881589999999, 728.744602, 728.80099, 728.857323, 728.913601, 728.9698249999999, 729.025993, 729.082107, 729.1381660000001, 729.194171, 729.2501219999999, 729.306019, 729.361862, 729.417651, 729.473387, 729.529069, 729.584698, 729.640273, 729.695795, 729.751265, 729.806681, 729.862045, 729.917357, 729.972615, 730.027822, 730.082976, 730.1380790000001, 730.193129, 730.243337, 730.298202, 730.3530139999999, 730.407774, 730.4624819999999, 730.5171369999999, 730.57174, 730.6262909999999, 730.68079, 730.735237, 730.789633, 730.843977, 730.8982699999999, 730.952511, 731.006701, 731.06084, 731.114928, 731.1689660000001, 731.222952, 731.276888, 731.330773, 731.3846080000001, 731.438392, 731.492127, 731.5458110000001, 731.599445, 731.653029, 731.706564, 731.760049, 731.813484, 731.86687, 731.920207, 731.973494, 732.0267329999999, 732.079922, 732.1330619999999, 732.186154, 732.239197, 732.292191, 732.345137, 732.3980349999999, 732.450884, 732.5036849999999, 732.5564380000001, 732.609143, 732.6618, 732.71441, 732.7669719999999, 732.819486, 732.871953, 732.9243720000001, 732.976744, 733.0290689999999, 733.081347, 733.1335779999999, 733.1857630000001, 733.2379, 733.289991, 733.3420349999999, 733.3940329999999, 733.445985, 733.49789, 733.549749, 733.6015620000001, 733.653329, 733.7050499999999, 733.756726, 733.808356, 733.8599399999999, 733.911479, 733.962972, 734.01442, 734.065823, 734.117181, 734.168493, 734.219761, 734.270984, 734.3221619999999, 734.373296, 734.4243849999999, 734.4754300000001, 734.5264299999999, 734.5773859999999, 734.628298, 734.679166, 734.7299889999999, 734.780769, 734.831505, 734.882197, 734.9328459999999, 734.983451, 735.0340130000001, 735.084531, 735.135006, 735.185438, 735.235827, 735.286172, 735.336475, 735.3867349999999, 735.436952, 735.487127, 735.537259, 735.587348, 735.637395, 735.6874, 735.737362, 735.787282, 735.8371609999999, 735.8869970000001, 735.936791, 735.986544, 736.036254, 736.085924, 736.1355510000001, 736.1851369999999, 736.2346819999999, 736.284185, 736.333647, 736.383068, 736.4324479999999, 736.4817869999999, 736.531084, 736.580342, 736.629558, 736.678734, 736.7278689999999, 736.7769629999999, 736.8260170000001, 736.8750309999999, 736.924005, 736.972938, 737.0218309999999, 737.0706849999999, 737.119498, 737.168271, 737.217005, 737.2656979999999, 737.314353, 737.362967, 737.411542, 737.460078, 737.5085740000001, 737.557031, 737.605449, 737.653828, 737.702168, 737.750469, 737.79873, 737.846953, 737.895138, 737.943283, 737.991391, 738.039459, 738.087489, 738.135481, 738.1834339999999, 738.2313499999999, 738.279227, 738.327066, 738.374867, 738.4226299999999, 738.470355, 738.518043, 738.5656929999999, 738.613305, 738.660879, 738.708416, 738.755916, 738.803378, 738.8508029999999, 738.898191, 738.9455409999999, 738.992855, 739.040131, 739.087371, 739.134574, 739.18174, 739.2288689999999, 739.275961, 739.323017, 739.370037, 739.41702, 739.4639659999999, 739.5108759999999, 739.5577499999999, 739.6045879999999, 739.65139, 739.698155, 739.744885, 739.7915790000001, 739.8382369999999, 739.884859, 739.9314449999999, 739.977996, 740.024511, 740.0709909999999, 740.117435, 740.163843, 740.210217, 740.2565549999999, 740.3028579999999, 740.349126, 740.395359, 740.4415559999999, 740.487719, 740.533847, 740.5799400000001, 740.625999, 740.672022, 740.718011, 740.763966, 740.809886, 740.855771, 740.901623, 740.947439, 740.993222, 741.03897, 741.084685, 741.130365, 741.1760109999999, 741.221623, 741.267202, 741.312746, 741.358257, 741.403734, 741.449178, 741.494588, 741.5399639999999, 741.5853070000001, 741.630617, 741.675893, 741.721136, 741.766345, 741.811522, 741.856665, 741.9017759999999, 741.9468529999999, 741.991898, 742.0369089999999, 742.0818879999999, 742.126834, 742.171747, 742.216628, 742.261476, 742.306292, 742.3510749999999, 742.3958259999999, 742.440544, 742.48523, 742.5298839999999, 742.5745049999999, 742.619095, 742.663652, 742.708178, 742.752671, 742.797133, 742.8415630000001, 742.8859610000001, 742.9303269999999, 742.974661, 743.018964, 743.0632350000001, 743.1074749999999, 743.1516839999999, 743.19586, 743.240006, 743.28412, 743.328203, 743.372255, 743.416276, 743.4602649999999, 743.504224, 743.548152, 743.592048, 743.635914, 743.679749, 743.723553, 743.767327, 743.81107, 743.854782, 743.898463, 743.942115, 743.985735, 744.0293260000001, 744.0728859999999, 744.116415, 744.159915, 744.2033839999999, 744.246823, 744.290232, 744.3336109999999, 744.3769599999999, 744.4202789999999, 744.463568, 744.506827, 744.5500569999999, 744.593257, 744.636427, 744.679567, 744.722678, 744.765759, 744.808811, 744.8518339999999, 744.894826, 744.9377900000001, 744.980724, 745.02363, 745.066505, 745.109352, 745.15217, 745.194958, 745.2377180000001, 745.280449, 745.32315, 745.365823, 745.408467, 745.4510829999999, 745.493669, 745.5362269999999, 745.578756, 745.621257, 745.663729, 745.7061729999999, 745.7485879999999, 745.790975, 745.8333339999999, 745.875664, 745.917966, 745.96024, 746.002486, 746.044703, 746.086892, 746.129054, 746.1711869999999, 746.213293, 746.255371, 746.297421, 746.339443, 746.381437, 746.4234039999999, 746.465343, 746.507254, 746.549138, 746.5909939999999, 746.632823, 746.674624, 746.716398, 746.758145, 746.799864, 746.841556, 746.883221, 746.9248590000001, 746.966469, 747.0080529999999, 747.0496089999999, 747.091139, 747.1326409999999, 747.174117, 747.2155660000001, 747.256988, 747.298383, 747.3397510000001, 747.381093, 747.422408, 747.463697, 747.504959, 747.546194, 747.587403, 747.6285849999999, 747.669741, 747.710871, 747.751975, 747.793052, 747.8341029999999, 747.875127, 747.916126, 747.957098, 747.9980449999999, 748.038965, 748.0798589999999, 748.120728, 748.16157, 748.2023869999999, 748.243178, 748.283943, 748.324682, 748.3653959999999, 748.406084, 748.4467460000001, 748.4873829999999, 748.527994, 748.56858, 748.60914, 748.649675, 748.6901849999999, 748.7306689999999, 748.771128, 748.811561, 748.85197, 748.892353, 748.932711, 748.973044, 749.0133519999999, 749.053635, 749.093892, 749.1341249999999, 749.174333, 749.214516, 749.254675, 749.294808, 749.334917, 749.375001, 749.41506, 749.4550949999999, 749.4951050000001, 749.53509, 749.575051, 749.614988, 749.6549, 749.694787, 749.73465, 749.774489, 749.814304, 749.854094, 749.89386, 749.9336020000001, 749.9733200000001, 750.013013, 750.052683, 750.0923280000001, 750.131949, 750.171547, 750.2111199999999, 750.25067, 750.290195, 750.3296969999999, 750.3691749999999, 750.40863, 750.4480599999999, 750.487467, 750.52685, 750.56621, 750.6055459999999, 750.644858, 750.6841469999999, 750.7234129999999, 750.7626549999999, 750.801873, 750.8410690000001, 750.880241, 750.919389, 750.958514, 750.997617, 751.036695, 751.075751, 751.114784, 751.153793, 751.19278, 751.2317429999999, 751.270683, 751.3096009999999, 751.348495, 751.3873669999999, 751.4262160000001, 751.4650419999999, 751.503845, 751.542625, 751.581383, 751.6201179999999, 751.65883, 751.6975199999999, 751.736187, 751.774832, 751.813454, 751.852053, 751.890631, 751.9291850000001, 751.967718, 752.006227, 752.044715, 752.08318, 752.121623, 752.160044, 752.198443, 752.236819, 752.275174, 752.313506, 752.351816, 752.390104, 752.42837, 752.466614, 752.5048370000001, 752.543037, 752.5812149999999, 752.6193719999999, 752.657507, 752.69562, 752.733711, 752.77178, 752.8098279999999, 752.847854, 752.885859, 752.9238419999999, 752.961803, 752.9997430000001, 753.037662, 753.075558, 753.113434, 753.1512879999999, 753.189121, 753.226932, 753.264722, 753.302491, 753.340238, 753.377964, 753.415669, 753.453353, 753.491016, 753.528658, 753.566278, 753.6038779999999, 753.641456, 753.679014, 753.716551, 753.754066, 753.791561, 753.829035, 753.866488, 753.90392, 753.941331, 753.9787220000001, 754.016092, 754.053442, 754.09077, 754.1280780000001, 754.165366, 754.202633, 754.239879, 754.277105, 754.31431, 754.351495, 754.388659, 754.425803, 754.4629269999999, 754.5000299999999, 754.537113, 754.574176, 754.611218, 754.64824, 754.685242, 754.722224, 754.759186, 754.796127, 754.8330490000001, 754.86995, 754.906832, 754.9436929999999, 754.9805349999999, 755.017356, 755.0541579999999, 755.090939, 755.127701, 755.1644429999999, 755.201165, 755.2378669999999, 755.27455, 755.3112130000001, 755.347856, 755.384479, 755.421083, 755.457667, 755.494232, 755.5307770000001, 755.5673019999999, 755.6038080000001, 755.6402949999999, 755.6767619999999, 755.713209, 755.7496379999999, 755.7860459999999, 755.8224359999999, 755.858806, 755.8951569999999, 755.931488, 755.9677999999999, 756.004094, 756.040367, 756.076622, 756.1128580000001, 756.1490739999999, 756.185271, 756.2214499999999, 756.257609, 756.293749, 756.3298699999999, 756.3659719999999, 756.402056, 756.43812, 756.474166, 756.510192, 756.5461999999999, 756.582189, 756.618159, 756.6541110000001, 756.690044, 756.725958, 756.761853, 756.797729, 756.833588, 756.869427, 756.905248, 756.94105, 756.976834, 757.0125989999999, 757.048346, 757.084074, 757.119784, 757.155475, 757.191148, 757.226803, 757.262439, 757.298057, 757.333657, 757.369239, 757.404802, 757.440347, 757.4758740000001, 757.511382, 757.546873, 757.5823449999999, 757.6178, 757.653236, 757.6886539999999, 757.7240539999999, 757.7594359999999, 757.7948, 757.8301469999999, 757.865475, 757.900785, 757.936078, 757.971352, 758.006609, 758.041848, 758.077069, 758.112273, 758.147459, 758.182627, 758.2177770000001, 758.2529089999999, 758.288024, 758.3231219999999, 758.3582009999999, 758.3932639999999, 758.428308, 758.4633349999999, 758.498345, 758.533337, 758.568312, 758.603269, 758.6382080000001, 758.673131, 758.708036, 758.742923, 758.777794, 758.812646, 758.8474819999999, 758.882301, 758.9171019999999, 758.947646, 758.9823839999999, 759.017106, 759.0518099999999, 759.086497, 759.121166, 759.155819, 759.1904539999999, 759.225072, 759.2596729999999, 759.294256, 759.328823, 759.363373, 759.397905, 759.43242, 759.466919, 759.5014, 759.535864, 759.5703120000001, 759.604742, 759.639156, 759.673552, 759.7079319999999, 759.742295, 759.7766409999999, 759.81097, 759.845283, 759.879578, 759.913857, 759.948119, 759.9823650000001, 760.0165939999999, 760.050806, 760.0850009999999, 760.11918, 760.153342, 760.187488, 760.221617, 760.2557290000001, 760.289825, 760.3239040000001, 760.357967, 760.392014, 760.426044, 760.460057, 760.494055, 760.5280349999999, 760.5619999999999, 760.5959479999999, 760.62988, 760.663795, 760.697694, 760.731577, 760.765444, 760.799294, 760.833128, 760.866946, 760.9007479999999, 760.934534, 760.968303, 761.002057, 761.035794, 761.0695149999999, 761.10322, 761.1369100000001, 761.170583, 761.2042399999999, 761.237881, 761.271506, 761.3051159999999, 761.338709, 761.3722859999999, 761.405848, 761.439394, 761.472924, 761.5064379999999, 761.539936, 761.573418, 761.6068849999999, 761.640336, 761.673771, 761.707191, 761.740595, 761.7739829999999, 761.807356, 761.840712, 761.874054, 761.907379, 761.9406899999999, 761.9739840000001, 762.007263, 762.040527, 762.073775, 762.107007, 762.140224, 762.1734260000001, 762.206612, 762.239782, 762.272938, 762.3060780000001, 762.339202, 762.372312, 762.405406, 762.438484, 762.471548, 762.504596, 762.5376289999999, 762.570646, 762.603649, 762.636636, 762.669608, 762.7025649999999, 762.735506, 762.768433, 762.801344, 762.8342409999999, 762.8671219999999, 762.899988, 762.9328399999999, 762.9656759999999, 762.9984969999999, 763.031303, 763.0640950000001, 763.096871, 763.1296319999999, 763.162379, 763.1951099999999, 763.227827, 763.2605289999999, 763.293216, 763.325888, 763.3585459999999, 763.391188, 763.423816, 763.456429, 763.489027, 763.521611, 763.55418, 763.586734, 763.619273, 763.651798, 763.684309, 763.7168039999999, 763.749285, 763.781751, 763.814203, 763.846641, 763.879063, 763.911471, 763.943865, 763.976244, 764.008609, 764.040959, 764.0732949999999, 764.105617, 764.137924, 764.170216, 764.202495, 764.234759, 764.267008, 764.2992429999999, 764.331464, 764.363671, 764.395863, 764.4280409999999, 764.460205, 764.492355, 764.52449, 764.556612, 764.588719, 764.620812, 764.6528900000001, 764.684955, 764.717005, 764.749042, 764.781064, 764.813072, 764.845067, 764.8770470000001, 764.909013, 764.940965, 764.972903, 765.0048270000001, 765.036738, 765.068634, 765.100516, 765.132385, 765.1642400000001, 765.1960799999999, 765.227907, 765.25972, 765.291519, 765.323305, 765.3550759999999, 765.3868339999999, 765.418578, 765.4503080000001, 765.4820249999999, 765.513727, 765.545417, 765.577092, 765.608754, 765.640402, 765.6720359999999, 765.703657, 765.735264, 765.766858, 765.798438, 765.830004, 765.8615570000001, 765.893096, 765.924622, 765.9561339999999, 765.987633, 766.0191179999999, 766.0505899999999, 766.082048, 766.113493, 766.144925, 766.176343, 766.207748, 766.2391389999999, 766.270517, 766.301881, 766.333233, 766.364571, 766.395895, 766.427207, 766.458505, 766.48979, 766.5210609999999, 766.5523199999999, 766.583565, 766.614797, 766.6460149999999, 766.677221, 766.7084130000001, 766.739593, 766.770759, 766.801912, 766.833052, 766.864179, 766.8952919999999, 766.926393, 766.957481, 766.9885549999999, 767.0196169999999, 767.050666, 767.081701, 767.112724, 767.143734, 767.1747300000001, 767.2057140000001, 767.236685, 767.267643, 767.2985879999999, 767.32952, 767.3604389999999, 767.391346, 767.42224, 767.45312, 767.483988, 767.514844, 767.5456859999999, 767.576516, 767.6073329999999, 767.638137, 767.6689279999999, 767.699707, 767.730473, 767.7612270000001, 767.791967, 767.822695, 767.853411, 767.8841130000001, 767.914803, 767.945481, 767.976146, 768.006798, 768.037438, 768.068065, 768.0986800000001, 768.129282, 768.159872, 768.190449, 768.221014, 768.251566, 768.282106, 768.312633, 768.343148, 768.373651, 768.404141, 768.434618, 768.465084, 768.4955369999999, 768.525977, 768.5564049999999, 768.586821, 768.617225, 768.647616, 768.677995, 768.708362, 768.738717, 768.769059, 768.799389, 768.829706, 768.860012, 768.890305, 768.920587, 768.950856, 768.9811119999999, 769.011357, 769.04159, 769.07181, 769.1020179999999, 769.132215, 769.162399, 769.192571, 769.2227310000001, 769.2528789999999, 769.283015, 769.313139, 769.343251, 769.3733510000001, 769.4034379999999, 769.4335140000001, 769.463578, 769.49363, 769.5236709999999, 769.553699, 769.583715, 769.613719, 769.643712, 769.673693, 769.703661, 769.733618, 769.763563, 769.793497, 769.823418, 769.8533279999999, 769.883226, 769.913112, 769.942986, 769.972849, 770.0026989999999, 770.032539, 770.062366, 770.092182, 770.121986, 770.151778, 770.181559, 770.211328, 770.241085, 770.270831, 770.300565, 770.3302869999999, 770.359998, 770.389698, 770.4193849999999, 770.449061, 770.4787259999999, 770.508379, 770.538021, 770.567651, 770.597269, 770.6268769999999, 770.656472, 770.6860559999999, 770.715629, 770.74519, 770.77474, 770.804278, 770.833805, 770.8633209999999, 770.892825, 770.922318, 770.9517989999999, 770.981269, 771.010728, 771.040176, 771.069612, 771.0990370000001, 771.1284499999999, 771.1578519999999, 771.187243, 771.216623, 771.245991, 771.275349, 771.3046949999999, 771.334029, 771.363353, 771.392665, 771.421966, 771.451256, 771.480535, 771.509803, 771.5390600000001, 771.5683049999999, 771.597539, 771.626763, 771.655975, 771.685176, 771.7143659999999, 771.7435449999999, 771.7727130000001, 771.801869, 771.831015, 771.86015, 771.8892739999999, 771.918387, 771.947488, 771.976579, 772.0056589999999, 772.034728, 772.063786, 772.0928329999999, 772.121869, 772.150895, 772.179909, 772.2089119999999, 772.237905, 772.266887, 772.2958570000001, 772.3248179999999, 772.3537670000001, 772.382705, 772.411633, 772.440549, 772.4694549999999, 772.498351, 772.527235, 772.556109, 772.584971, 772.613824, 772.642665, 772.6714959999999, 772.7003159999999, 772.729125, 772.757924, 772.7867120000001, 772.815489, 772.844256, 772.873012, 772.901757, 772.930492, 772.959216, 772.98793, 773.016633, 773.0453249999999, 773.0740069999999, 773.102678, 773.1313389999999, 773.159989, 773.188629, 773.2172579999999, 773.2458760000001, 773.2744839999999, 773.3030819999999, 773.331669, 773.360246, 773.3888119999999, 773.417368, 773.445913, 773.4744479999999, 773.5029719999999, 773.531486, 773.55999, 773.588483, 773.6169659999999, 773.645439, 773.673901, 773.702353, 773.730794, 773.759225, 773.787646, 773.816057, 773.844457, 773.872847, 773.901227, 773.929596, 773.957955, 773.986304, 774.014643, 774.042971, 774.071289, 774.0995969999999, 774.127895, 774.1561829999999, 774.18446, 774.212727, 774.2409839999999, 774.269231, 774.297468, 774.3256939999999, 774.3539109999999, 774.382117, 774.410314, 774.4385, 774.4666759999999, 774.494842, 774.522998, 774.551144, 774.5792799999999, 774.607406, 774.6355209999999, 774.663627, 774.691723, 774.719809, 774.747885, 774.77595, 774.804006, 774.832052, 774.8600879999999, 774.888114, 774.9161300000001, 774.944136, 774.972132, 775.000118, 775.028095, 775.056061, 775.084018, 775.1119649999999, 775.139902, 775.167829, 775.195746, 775.2236529999999, 775.251551, 775.2794389999999, 775.307316, 775.3351849999999, 775.3630430000001, 775.390891, 775.41873, 775.446559, 775.474379, 775.502188, 775.5299879999999, 775.557778, 775.585558, 775.613329, 775.64109, 775.6688409999999, 775.696583, 775.724315, 775.752037, 775.7797499999999, 775.807453, 775.835146, 775.86283, 775.890504, 775.918168, 775.945823, 775.9734689999999, 776.0011039999999, 776.028731, 776.0563470000001, 776.083954, 776.1115520000001, 776.1391399999999, 776.1667180000001, 776.194287, 776.221846, 776.2493959999999, 776.276937, 776.3044679999999, 776.331989, 776.3595009999999, 776.387004, 776.414497, 776.44198, 776.4694549999999, 776.4969189999999, 776.5243750000001, 776.5518209999999, 776.579257, 776.606684, 776.634102, 776.661511, 776.68891, 776.716299, 776.74368, 776.7710509999999, 776.798413, 776.8257649999999, 776.8531079999999, 776.8804419999999, 776.907766, 776.935081, 776.9623869999999, 776.989684, 777.016971, 777.044249, 777.071518, 777.098778, 777.1260279999999, 777.153269, 777.180501, 777.207724, 777.2349379999999, 777.2621419999999, 777.289337, 777.316523, 777.3436999999999, 777.370868, 777.3980270000001, 777.4251760000001, 777.452316, 777.479447, 777.506569, 777.5336819999999, 777.560786, 777.5878809999999, 777.614967, 777.642043, 777.669111, 777.696169, 777.723219, 777.750259, 777.777291, 777.804313, 777.831326, 777.858331, 777.8853260000001, 777.9123119999999, 777.9392899999999, 777.9662579999999, 777.993218, 778.0201679999999, 778.04711, 778.074042, 778.100966, 778.127881, 778.154786, 778.181683, 778.2085709999999, 778.23545, 778.2623199999999, 778.289182, 778.3160340000001, 778.342878, 778.369712, 778.396538, 778.423355, 778.450164, 778.476963, 778.503753, 778.530535, 778.557308, 778.584072, 778.610828, 778.637574, 778.664312, 778.6910409999999, 778.717761, 778.7444730000001, 778.771176, 778.79787, 778.824555, 778.851232, 778.8778990000001, 778.904559, 778.931209, 778.957851, 778.984484, 779.011109, 779.037724, 779.064332, 779.09093, 779.11752, 779.144101, 779.170674, 779.197238, 779.223793, 779.25034, 779.276878, 779.303408, 779.329929, 779.356441, 779.3829450000001, 779.40944, 779.435927, 779.462405, 779.488875, 779.5153359999999, 779.541789, 779.568233, 779.594668, 779.621095, 779.647514, 779.673924, 779.700326, 779.726719, 779.753104, 779.7794799999999, 779.805848, 779.832207, 779.858558, 779.8849, 779.9112339999999, 779.93756, 779.963877, 779.990186, 780.016487, 780.042779, 780.069062, 780.095338, 780.121605, 780.147863, 780.174114, 780.200355, 780.226589, 780.252814, 780.2790309999999, 780.30524, 780.3314399999999, 780.357632, 780.3838159999999, 780.409991, 780.436159, 780.462318, 780.488468, 780.514611, 780.540745, 780.566871, 780.592988, 780.6190979999999, 780.6451989999999, 780.671292, 780.697377, 780.723453, 780.749522, 780.775582, 780.801634, 780.827678, 780.853714, 780.879741, 780.90576, 780.9317719999999, 780.957775, 780.9837699999999, 781.0097569999999, 781.035735, 781.061706, 781.0876679999999, 781.113623, 781.139569, 781.1655079999999, 781.191438, 781.21736, 781.243274, 781.26918, 781.295078, 781.3209679999999, 781.34685, 781.3727230000001, 781.398589, 781.424447, 781.450297, 781.476139, 781.501972, 781.5277980000001, 781.5536159999999, 781.5794259999999, 781.605228, 781.631022, 781.6568080000001, 781.6825859999999, 781.708356, 781.734118, 781.759872, 781.785618, 781.811357, 781.837087, 781.86281, 781.888524, 781.914231, 781.9399299999999, 781.9656209999999, 781.991304, 782.01698, 782.042647, 782.0683069999999, 782.093958, 782.119602, 782.145238, 782.1708659999999, 782.1964869999999, 782.222099, 782.247704, 782.2733010000001, 782.298891, 782.324472, 782.350046, 782.375612, 782.40117, 782.42672, 782.452263, 782.4777979999999, 782.5033249999999, 782.5288439999999, 782.554356, 782.57986, 782.605356, 782.630844, 782.656325, 782.6817980000001, 782.707264, 782.732721, 782.758172, 782.783614, 782.8090490000001, 782.834476, 782.8598949999999, 782.885307, 782.910711, 782.936108, 782.961496, 782.9868779999999, 783.012251, 783.037617, 783.0629759999999, 783.0883269999999, 783.11367, 783.139006, 783.1643339999999, 783.1896539999999, 783.214967, 783.240272, 783.2655699999999, 783.290861, 783.3161429999999, 783.341418, 783.3666860000001, 783.391946, 783.417199, 783.4424439999999, 783.4676820000001, 783.492912, 783.518134, 783.5433499999999, 783.568557, 783.593757, 783.61895, 783.644136, 783.669313, 783.694484, 783.7196469999999, 783.7448019999999, 783.76995, 783.795091, 783.8202239999999, 783.8453499999999, 783.8704680000001, 783.8955789999999, 783.9206829999999, 783.9457789999999, 783.970868, 783.995949, 784.021023, 784.04609, 784.071149, 784.096201, 784.1212459999999, 784.146283, 784.1713129999999, 784.1963360000001, 784.221351, 784.246359, 784.27136, 784.296353, 784.321339, 784.346318, 784.3712889999999, 784.396253, 784.42121, 784.44616, 784.471102, 784.496038, 784.520965, 784.545886, 784.5707990000001, 784.595705, 784.620604, 784.645496, 784.67038, 784.695258, 784.720128, 784.7449899999999, 784.769846, 784.7946949999999, 784.819536, 784.8443699999999, 784.869197, 784.894016, 784.918829, 784.943634, 784.968433, 784.993224, 785.018008, 785.042784, 785.067554, 785.092317, 785.117072, 785.1418199999999, 785.166562, 785.191296, 785.2160230000001, 785.240743, 785.265455, 785.290161, 785.31486, 785.339552, 785.364236, 785.388914, 785.413584, 785.4382469999999, 785.462904, 785.4875529999999, 785.512195, 785.536831, 785.5614589999999, 785.5860799999999, 785.6106940000001, 785.6353019999999, 785.659902, 785.684495, 785.709081, 785.733661, 785.758233, 785.782798, 785.807357, 785.831908, 785.856452, 785.88099, 785.90552, 785.930044, 785.954561, 785.97907, 786.003573, 786.028069, 786.052558, 786.07704, 786.1015150000001, 786.125984, 786.150445, 786.1749, 786.199347, 786.223788, 786.2482219999999, 786.272649, 786.297069, 786.3214830000001, 786.345889, 786.370289, 786.394681, 786.419068, 786.443447, 786.467819, 786.492185, 786.516543, 786.540895, 786.56524, 786.5895790000001, 786.61391, 786.6382349999999, 786.662553, 786.686864, 786.7111679999999, 786.735466, 786.759757, 786.784041, 786.808318, 786.832589, 786.856853, 786.88111, 786.905361, 786.929604, 786.953841, 786.978072, 787.0022949999999, 787.0265119999999, 787.0507220000001, 787.0749259999999, 787.099123, 787.123313, 787.1474959999999, 787.171673, 787.195843, 787.220007, 787.244163, 787.2683139999999, 787.2924569999999, 787.316594, 787.340724, 787.3648479999999, 787.388965, 787.413075, 787.437179, 787.461276, 787.485366, 787.50945, 787.5335279999999, 787.557599, 787.5816629999999, 787.6057199999999, 787.629771, 787.6538159999999, 787.677853, 787.7018850000001, 787.7259089999999, 787.749928, 787.773939, 787.797944, 787.8219429999999, 787.8459349999999, 787.869921, 787.8938989999999, 787.917872, 787.941838, 787.965797, 787.9897500000001, 788.013697, 788.0376369999999, 788.06157, 788.0854969999999, 788.109418, 788.133332, 788.157239, 788.1811399999999, 788.2050350000001, 788.228923, 788.252805, 788.2766799999999, 788.300549, 788.324412, 788.348268, 788.372117, 788.39596, 788.419797, 788.443627, 788.467451, 788.491269, 788.51508, 788.538885, 788.562683, 788.586475, 788.6102609999999, 788.63404, 788.657813, 788.681579, 788.705339, 788.729093, 788.752841, 788.776582, 788.800316, 788.8240450000001, 788.847767, 788.871483, 788.895192, 788.918895, 788.942592, 788.966283, 788.989967, 789.013645, 789.037316, 789.060981, 789.0846409999999, 789.1082929999999, 789.13194, 789.15558, 789.179214, 789.202842, 789.226463, 789.250078, 789.273687, 789.29729, 789.3208860000001, 789.344476, 789.36806, 789.391638, 789.41521, 789.438775, 789.4623339999999, 789.4858869999999, 789.5094339999999, 789.532974, 789.5565089999999, 789.580037, 789.603559, 789.627075, 789.650584, 789.674088, 789.697585, 789.7210759999999, 789.744561, 789.76804, 789.791512, 789.814979, 789.8384389999999, 789.8618939999999, 789.885342, 789.908784, 789.9322199999999, 789.955649, 789.979073, 790.002491, 790.025902, 790.049307, 790.0727069999999, 790.0961, 790.119487, 790.142868, 790.166243, 790.189612, 790.212974, 790.236331, 790.259682, 790.283026, 790.3063649999999, 790.329697, 790.3530239999999, 790.376344, 790.3996589999999, 790.422967, 790.446269, 790.469566, 790.492856, 790.5161400000001, 790.539419, 790.562691, 790.585957, 790.609217, 790.632472, 790.65572, 790.678962, 790.7021990000001, 790.725429, 790.748654, 790.7718719999999, 790.795085, 790.818291, 790.841492, 790.864686, 790.887875, 790.9110579999999, 790.9342350000001, 790.957405, 790.98057, 791.00373, 791.026883, 791.05003, 791.073171, 791.096307, 791.119436, 791.14256, 791.1656780000001, 791.1887899999999, 791.211895, 791.234996, 791.25809, 791.281178, 791.3042609999999, 791.327337, 791.350408, 791.373473, 791.396532, 791.419585, 791.442632, 791.465674, 791.48871, 791.51174, 791.534764, 791.557782, 791.580794, 791.6038010000001, 791.626802, 791.649797, 791.672786, 791.695769, 791.718747, 791.741719, 791.764685, 791.787645, 791.8105989999999, 791.8335480000001, 791.856491, 791.879428, 791.9023589999999, 791.925285, 791.9482049999999, 791.9711189999999, 791.994027, 792.0169299999999, 792.039827, 792.062718, 792.085604, 792.108483, 792.131357, 792.154226, 792.1770889999999, 792.199945, 792.222796, 792.245642, 792.268482, 792.291316, 792.3141439999999, 792.336967, 792.359784, 792.3825949999999, 792.405401, 792.428201, 792.450996, 792.473784, 792.496567, 792.5193449999999, 792.542117, 792.564883, 792.587643, 792.610398, 792.633147, 792.655891, 792.678629, 792.701361, 792.724088, 792.746809, 792.7695239999999, 792.792234, 792.814939, 792.837637, 792.86033, 792.883018, 792.9057, 792.928376, 792.9510469999999, 792.973712, 792.996372, 793.0190259999999, 793.0416740000001, 793.064317, 793.086955, 793.109586, 793.132213, 793.1548329999999, 793.1774489999999, 793.200058, 793.222662, 793.245261, 793.2678539999999, 793.290442, 793.313024, 793.3356, 793.358171, 793.380737, 793.403297, 793.425851, 793.4484, 793.4709439999999, 793.493482, 793.516014, 793.5385419999999, 793.561063, 793.583579, 793.60609, 793.628595, 793.6510949999999, 793.673589, 793.6960779999999, 793.718561, 793.741039, 793.7635119999999, 793.785979, 793.808441, 793.8308969999999, 793.853348, 793.8757929999999, 793.8982329999999, 793.920667, 793.943096, 793.96552, 793.987938, 794.0103509999999, 794.032759, 794.0551609999999, 794.077558, 794.099949, 794.1223349999999, 794.1447149999999, 794.167091, 794.1894609999999, 794.211825, 794.234184, 794.256538, 794.2788859999999, 794.301229, 794.3235669999999, 794.3458989999999, 794.368226, 794.390548, 794.412864, 794.4351750000001, 794.457481, 794.479781, 794.502076, 794.524366, 794.54665, 794.5689289999999, 794.591203, 794.613471, 794.635734, 794.6579919999999, 794.680245, 794.702492, 794.724734, 794.746971, 794.769202, 794.791428, 794.8136489999999, 794.835865, 794.858075, 794.88028, 794.90248, 794.924674, 794.946864, 794.969048, 794.991227, 795.0133999999999, 795.035569, 795.057732, 795.07989, 795.102042, 795.12419, 795.1463319999999, 795.1684690000001, 795.190601, 795.212727, 795.2348489999999, 795.2569649999999, 795.279076, 795.3011819999999, 795.323282, 795.345378, 795.367468, 795.389553, 795.4116329999999, 795.433708, 795.455777, 795.4778409999999, 795.499901, 795.5219549999999, 795.5440030000001, 795.566047, 795.588086, 795.6101189999999, 795.632148, 795.654171, 795.676189, 795.6982019999999, 795.720209, 795.7422119999999, 795.7642089999999, 795.786202, 795.8081890000001, 795.830171, 795.852148, 795.87412, 795.896087, 795.918049, 795.9400049999999, 795.961957, 795.9839029999999, 796.005845, 796.027781, 796.049712, 796.071639, 796.0935599999999, 796.115476, 796.137387, 796.159292, 796.181193, 796.203089, 796.22498, 796.246865, 796.268746, 796.290622, 796.312492, 796.334357, 796.356218, 796.378073, 796.399924, 796.4217689999999, 796.4436099999999, 796.465445, 796.4872750000001, 796.509101, 796.530921, 796.552736, 796.5745459999999, 796.596352, 796.6181519999999, 796.6399469999999, 796.6617379999999, 796.683523, 796.705304, 796.7270789999999, 796.74885, 796.770615, 796.792375, 796.814131, 796.835882, 796.857627, 796.879368, 796.901104, 796.922834, 796.94456, 796.966281, 796.987997, 797.009708, 797.0314139999999, 797.0531149999999, 797.074812, 797.096503, 797.1181889999999, 797.1398710000001, 797.1615469999999, 797.183219, 797.2048859999999, 797.226547, 797.248204, 797.269856, 797.2915029999999, 797.313146, 797.334783, 797.356416, 797.378043, 797.399666, 797.421284, 797.442897, 797.4645049999999, 797.486108, 797.507707, 797.5293, 797.550889, 797.572473, 797.594051, 797.615626, 797.6371949999999, 797.658759, 797.680319, 797.701874, 797.7234239999999, 797.744969, 797.766509, 797.788044, 797.809575, 797.831101, 797.8526219999999, 797.8741379999999, 797.8956489999999, 797.917156, 797.9386579999999, 797.960155, 797.981647, 798.0031339999999, 798.024617, 798.046095, 798.0675679999999, 798.089036, 798.1104999999999, 798.131958, 798.153412, 798.174862, 798.196306, 798.2177459999999, 798.23918, 798.260611, 798.2820360000001, 798.303457, 798.324873, 798.346284, 798.3676899999999, 798.389092, 798.410489, 798.431881, 798.453269, 798.474651, 798.496029, 798.517403, 798.538771, 798.560135, 798.581494, 798.602849, 798.624199, 798.645544, 798.666884, 798.6882199999999, 798.7095509999999, 798.730877, 798.752199, 798.773516, 798.794828, 798.816135, 798.8374379999999, 798.858736, 798.8800299999999, 798.9013190000001, 798.922603, 798.9438829999999, 798.965158, 798.9864279999999, 799.0076929999999, 799.0289539999999, 799.050211, 799.071463, 799.09271, 799.113952, 799.13519, 799.156423, 799.1776510000001, 799.1988749999999, 799.220095, 799.241309, 799.262519, 799.283725, 799.304925, 799.3261219999999, 799.347313, 799.3685, 799.389683, 799.41086, 799.4320339999999, 799.453202, 799.474366, 799.4955259999999, 799.516681, 799.537831, 799.558976, 799.580118, 799.601254, 799.622386, 799.643514, 799.664637, 799.6857550000001, 799.706869, 799.7279779999999, 799.7490819999999, 799.770183, 799.791278, 799.812369, 799.833456, 799.8545379999999, 799.875615, 799.896688, 799.917756, 799.9388200000001, 799.959879, 799.980934, 800.001984, 800.02303, 800.0440709999999, 800.065108, 800.08614, 800.107168, 800.128191, 800.14921, 800.1702240000001, 800.191234, 800.2122390000001, 800.2332399999999, 800.254236, 800.275228, 800.296215, 800.317198, 800.338177, 800.359151, 800.38012, 800.401085, 800.422046, 800.443002, 800.463953, 800.4849, 800.505843, 800.5267809999999, 800.5477149999999, 800.5686450000001, 800.589569, 800.6104899999999, 800.6314060000001, 800.652318, 800.673225, 800.694128, 800.715026, 800.7359200000001, 800.756809, 800.777694, 800.7985749999999, 800.819451, 800.8403229999999, 800.861191, 800.882054, 800.9029119999999, 800.923767, 800.944617, 800.9654619999999, 800.9863029999999, 801.0071399999999, 801.027972, 801.0488, 801.069624, 801.0904429999999, 801.111258, 801.132068, 801.152874, 801.173676, 801.194473, 801.215266, 801.236055, 801.256839, 801.2776190000001, 801.298395, 801.319166, 801.339933, 801.360695, 801.3814540000001, 801.402208, 801.422957, 801.443702, 801.464443, 801.48518, 801.505912, 801.5266399999999, 801.547364, 801.568083, 801.588798, 801.609508, 801.6302149999999, 801.650917, 801.671615, 801.692308, 801.712997, 801.7336819999999, 801.754363, 801.775039, 801.795711, 801.816379, 801.837042, 801.8577009999999, 801.878356, 801.899007, 801.919653, 801.940295, 801.9609330000001, 801.981567, 802.002196, 802.022821, 802.043442, 802.064058, 802.084671, 802.1052789999999, 802.125882, 802.146482, 802.167077, 802.1876679999999, 802.208255, 802.228838, 802.249416, 802.26999, 802.2905599999999, 802.311126, 802.331687, 802.352245, 802.372798, 802.393347, 802.413891, 802.434432, 802.454968, 802.4755, 802.4960279999999, 802.5165509999999, 802.5370710000001, 802.557586, 802.5780970000001, 802.598604, 802.619106, 802.639605, 802.660099, 802.680589, 802.701075, 802.721557, 802.742035, 802.762508, 802.782977, 802.803442, 802.823903, 802.84436, 802.864813, 802.885261, 802.905706, 802.926146, 802.946582, 802.9670140000001, 802.987442, 803.0078649999999, 803.028285, 803.0486999999999, 803.069111, 803.0895179999999, 803.109921, 803.13032, 803.150715, 803.171105, 803.1914919999999, 803.2118740000001, 803.232253, 803.252627, 803.2729969999999, 803.293363, 803.313725, 803.334082, 803.354436, 803.374786, 803.395131, 803.4154719999999, 803.43581, 803.456143, 803.4764720000001, 803.496797, 803.517118, 803.537435, 803.557748, 803.578056, 803.5983610000001, 803.618662, 803.6389579999999, 803.659251, 803.679539, 803.6998239999999, 803.720104, 803.74038, 803.760652, 803.7809209999999, 803.8011849999999, 803.8214449999999, 803.841701, 803.861953, 803.8822009999999, 803.902445, 803.922685, 803.942921, 803.963152, 803.98338, 804.003604, 804.023824, 804.04404, 804.064251, 804.084459, 804.1046630000001, 804.124863, 804.145059, 804.16525, 804.185438, 804.205622, 804.2258009999999, 804.245977, 804.266149, 804.2863169999999, 804.3064800000001, 804.32664, 804.346796, 804.366948, 804.387096, 804.40724, 804.42738, 804.447516, 804.467648, 804.4877759999999, 804.5079000000001, 804.52802, 804.548136, 804.568248, 804.588356, 804.6084599999999, 804.628561, 804.648657, 804.66875, 804.688838, 804.7089229999999, 804.729003, 804.7490799999999, 804.769153, 804.789221, 804.809286, 804.829347, 804.849404, 804.869458, 804.889507, 804.909552, 804.929593, 804.9496310000001, 804.969664, 804.989694, 805.00972, 805.0297410000001, 805.049759, 805.069773, 805.089783, 805.10979, 805.129792, 805.1497899999999, 805.169785, 805.1897759999999, 805.2097620000001, 805.229745, 805.2497239999999, 805.269699, 805.289671, 805.309638, 805.329602, 805.349561, 805.369517, 805.389469, 805.409417, 805.429361, 805.449302, 805.469238, 805.4891709999999, 805.509099, 805.529024, 805.5489449999999, 805.568863, 805.5887759999999, 805.608686, 805.6285909999999, 805.6484929999999, 805.6683909999999, 805.688285, 805.708176, 805.728062, 805.747945, 805.767824, 805.787699, 805.80757, 805.827438, 805.847302, 805.867161, 805.887017, 805.90687, 805.926718, 805.946563, 805.966403, 805.98624, 806.006074, 806.025903, 806.045729, 806.06555, 806.085369, 806.105183, 806.1249929999999, 806.1448, 806.164603, 806.184402, 806.204197, 806.223989, 806.243777, 806.263561, 806.283341, 806.3031179999999, 806.32289, 806.342659, 806.362425, 806.3821859999999, 806.401944, 806.421698, 806.4414479999999, 806.461194, 806.480937, 806.500676, 806.5204110000001, 806.540143, 806.5598699999999, 806.579594, 806.599315, 806.619031, 806.638744, 806.658453, 806.6781589999999, 806.69786, 806.7175579999999, 806.737252, 806.756943, 806.77663, 806.7963129999999, 806.8159919999999, 806.8356679999999, 806.8553400000001, 806.875008, 806.894672, 806.914333, 806.93399, 806.953644, 806.9732939999999, 806.99294, 807.0125820000001, 807.032221, 807.0518559999999, 807.0714869999999, 807.091115, 807.110739, 807.130359, 807.1499749999999, 807.169588, 807.189198, 807.208803, 807.2284050000001, 807.2480029999999, 807.267598, 807.2871889999999, 807.306776, 807.32636, 807.34594, 807.365516, 807.3850889999999, 807.4046569999999, 807.424223, 807.443785, 807.463343, 807.482897, 807.5024480000001, 807.521995, 807.541538, 807.561078, 807.580614, 807.600147, 807.6196759999999, 807.639201, 807.6587229999999, 807.678241, 807.697756, 807.717267, 807.736774, 807.756277, 807.775778, 807.795274, 807.814767, 807.834256, 807.853742, 807.8732239999999, 807.892702, 807.9121769999999, 807.9316479999999, 807.951116, 807.9705799999999, 807.9900399999999, 808.009497, 808.0289499999999, 808.0484, 808.067846, 808.087289, 808.106727, 808.1261629999999, 808.1455950000001, 808.165023, 808.184447, 808.2038689999999, 808.223286, 808.2427, 808.26211, 808.2815169999999, 808.3009199999999, 808.3203199999999, 808.339716, 808.359109, 808.3784979999999, 808.397884, 808.4172659999999, 808.436644, 808.456019, 808.47539, 808.494758, 808.5141219999999, 808.533483, 808.5528400000001, 808.572194, 808.591544, 808.6108899999999, 808.630234, 808.6495729999999, 808.668909, 808.688242, 808.707571, 808.726896, 808.746218, 808.765537, 808.784851, 808.804163, 808.8234709999999, 808.842775, 808.862076, 808.881374, 808.900667, 808.9199580000001, 808.939245, 808.958528, 808.977808, 808.997084, 809.016357, 809.035627, 809.054893, 809.074155, 809.0934139999999, 809.11267, 809.1319219999999, 809.151171, 809.1704159999999, 809.189658, 809.208896, 809.2281300000001, 809.247362, 809.2665890000001, 809.285814, 809.305035, 809.324252, 809.3434659999999, 809.362676, 809.381884, 809.401087, 809.420287, 809.439484, 809.458677, 809.477867, 809.4970529999999, 809.5162359999999, 809.5354159999999, 809.554592, 809.573764, 809.592934, 809.6120999999999, 809.631262, 809.6504209999999, 809.669576, 809.688728, 809.707877, 809.727022, 809.746164, 809.7653019999999, 809.784437, 809.8035689999999, 809.822697, 809.841822, 809.860943, 809.880061, 809.899176, 809.918287, 809.9373939999999, 809.956499, 809.9756, 809.994697, 810.013791, 810.032882, 810.05197, 810.071054, 810.0901339999999, 810.109211, 810.128285, 810.147356, 810.166423, 810.185486, 810.2045469999999, 810.223604, 810.242657, 810.261708, 810.280754, 810.2997979999999, 810.318838, 810.3378749999999, 810.356908, 810.3759379999999, 810.394965, 810.4139879999999, 810.433008, 810.452025, 810.4710379999999, 810.490048, 810.509055, 810.528058, 810.547058, 810.566054, 810.5850479999999, 810.6040380000001, 810.623024, 810.642007, 810.660987, 810.6799639999999, 810.6989369999999, 810.717907, 810.7368740000001, 810.7558369999999, 810.7747969999999, 810.793753, 810.8127069999999, 810.8316570000001, 810.850603, 810.869547, 810.888487, 810.907423, 810.926357, 810.945287, 810.964214, 810.983137, 811.002058, 811.020975, 811.039888, 811.058798, 811.0777059999999, 811.0966090000001, 811.11551, 811.1344069999999, 811.153301, 811.172191, 811.191079, 811.209963, 811.228844, 811.247721, 811.2665949999999, 811.2854659999999, 811.304334, 811.3231979999999, 811.342059, 811.360917, 811.379772, 811.3986229999999, 811.417471, 811.4363159999999, 811.455157, 811.473996, 811.492831, 811.511663, 811.530491, 811.549316, 811.568138, 811.586957, 811.605773, 811.624585, 811.643394, 811.6622, 811.681002, 811.699802, 811.718598, 811.737391, 811.7561800000001, 811.774967, 811.7937499999999, 811.8125299999999, 811.8313059999999, 811.85008, 811.86885, 811.887617, 811.906381, 811.9251419999999, 811.943899, 811.962653, 811.981404, 812.000152, 812.0188959999999, 812.0376379999999, 812.056376, 812.075111, 812.093843, 812.112571, 812.1312969999999, 812.1500189999999, 812.168738, 812.1874529999999, 812.2061659999999, 812.2248749999999, 812.2435810000001, 812.262284, 812.280984, 812.2996810000001, 812.318374, 812.337064, 812.3557519999999, 812.3744360000001, 812.393116, 812.411794, 812.4304679999999, 812.4491390000001, 812.467807, 812.486472, 812.505134, 812.523792, 812.5424479999999, 812.5611, 812.579749, 812.598395, 812.617038, 812.6356769999999, 812.654314, 812.672947, 812.691577, 812.710204, 812.728828, 812.747449, 812.766066, 812.784681, 812.8032919999999, 812.8218999999999, 812.840505, 812.859107, 812.877706, 812.896301, 812.914894, 812.933483, 812.952069, 812.970652, 812.9892319999999, 813.007809, 813.0263829999999, 813.044953, 813.063521, 813.082085, 813.100646, 813.119205, 813.1377600000001, 813.1563120000001, 813.1748600000001, 813.193406, 813.211949, 813.2304879999999, 813.249024, 813.2675579999999, 813.286088, 813.3046149999999, 813.323139, 813.3416599999999, 813.360178, 813.378692, 813.397204, 813.415713, 813.434218, 813.45272, 813.47122, 813.4897159999999, 813.508209, 813.5266989999999, 813.5451860000001, 813.5636699999999, 813.582151, 813.600628, 813.6191029999999, 813.637575, 813.6560430000001, 813.6745090000001, 813.6929710000001, 813.71143, 813.7298870000001, 813.74834, 813.7667899999999, 813.785237, 813.803681, 813.822122, 813.84056, 813.858995, 813.877427, 813.895856, 813.914281, 813.932704, 813.951124, 813.9695399999999, 813.987954, 814.0063640000001, 814.024772, 814.043176, 814.0615779999999, 814.079976, 814.098371, 814.116764, 814.135153, 814.1535389999999, 814.171923, 814.190303, 814.20868, 814.227054, 814.2454260000001, 814.2637940000001, 814.282159, 814.300521, 814.3188799999999, 814.337236, 814.355589, 814.373939, 814.392286, 814.41063, 814.4289709999999, 814.44731, 814.465645, 814.483977, 814.502306, 814.520632, 814.538955, 814.557275, 814.5755919999999, 814.5939060000001, 814.612217, 814.6305249999999, 814.648831, 814.667133, 814.685432, 814.703728, 814.722021, 814.740311, 814.758599, 814.7768829999999, 814.795164, 814.813443, 814.8317179999999, 814.84999, 814.86826, 814.886526, 814.90479, 814.92305, 814.9413079999999, 814.959562, 814.977814, 814.996063, 815.0143079999999, 815.032551, 815.050791, 815.069028, 815.087262, 815.105493, 815.1237209999999, 815.141946, 815.160168, 815.178387, 815.196603, 815.2148169999999, 815.233027, 815.251235, 815.269439, 815.2876409999999, 815.305839, 815.324035, 815.342228, 815.360418, 815.3786039999999, 815.396788, 815.4149689999999, 815.433148, 815.451323, 815.4694949999999, 815.4876639999999, 815.505831, 815.5239939999999, 815.542155, 815.560313, 815.5784679999999, 815.596619, 815.614768, 815.632914, 815.651058, 815.669198, 815.687335, 815.70547, 815.7236009999999, 815.7417300000001, 815.759856, 815.777978, 815.7960979999999, 815.814216, 815.83233, 815.850441, 815.868549, 815.886655, 815.9047579999999, 815.922857, 815.940954, 815.9590479999999, 815.977139, 815.995228, 816.013313, 816.031395, 816.049475, 816.067552, 816.085625, 816.103696, 816.121765, 816.13983, 816.157892, 816.175952, 816.1940079999999, 816.212062, 816.2301130000001, 816.248161, 816.266206, 816.2842489999999, 816.302288, 816.3203249999999, 816.338359, 816.3563889999999, 816.374418, 816.392443, 816.410465, 816.4284849999999, 816.446501, 816.4645149999999, 816.482526, 816.500534, 816.51854, 816.536542, 816.554542, 816.572539, 816.5905329999999, 816.6085239999999, 816.626512, 816.644498, 816.66248, 816.68046, 816.698437, 816.716411, 816.734383, 816.752351, 816.770317, 816.78828, 816.80624, 816.8241979999999, 816.8421519999999, 816.860104, 816.8780519999999, 816.895999, 816.913942, 816.931882, 816.94982, 816.9677549999999, 816.985687, 817.0036160000001, 817.021542, 817.039466, 817.057387, 817.075305, 817.09322, 817.111132, 817.129042, 817.146949, 817.164853, 817.1827539999999, 817.200652, 817.218548, 817.236441, 817.254331, 817.2722180000001, 817.290103, 817.307985, 817.3258639999999, 817.3437399999999, 817.3616129999999, 817.379484, 817.397352, 817.415217, 817.43308, 817.450939, 817.468796, 817.4866499999999, 817.504501, 817.52235, 817.540196, 817.558039, 817.575879, 817.593716, 817.6115510000001, 817.629383, 817.647212, 817.665039, 817.6828619999999, 817.7006829999999, 817.718502, 817.736317, 817.7541299999999, 817.77194, 817.7897469999999, 817.807551, 817.8253530000001, 817.843152, 817.860948, 817.878742, 817.896533, 817.9143210000001, 817.932106, 817.949889, 817.9676689999999, 817.985446, 818.00322, 818.020992, 818.0387609999999, 818.056527, 818.0742909999999, 818.092051, 818.1098089999999, 818.1275649999999, 818.145317, 818.163067, 818.1808149999999, 818.198559, 818.2163009999999, 818.2340399999999, 818.251776, 818.26951, 818.287241, 818.304969, 818.322695, 818.340417, 818.3581379999999, 818.375855, 818.39357, 818.411282, 818.428991, 818.446698, 818.4644020000001, 818.482103, 818.4998009999999, 818.5174969999999, 818.53519, 818.552881, 818.570569, 818.588254, 818.6059359999999, 818.623616, 818.641293, 818.658967, 818.676639, 818.694308, 818.7119739999999, 818.7296379999999, 818.747299, 818.764957, 818.782613, 818.800266, 818.817916, 818.835564, 818.853209, 818.870851, 818.888491, 818.906128, 818.923762, 818.941394, 818.959023, 818.976649, 818.994273, 819.011894, 819.029512, 819.047128, 819.064741, 819.082351, 819.099959, 819.117564, 819.135167, 819.1527659999999, 819.170364, 819.187958, 819.2055499999999, 819.223139, 819.240726, 819.25831, 819.275891, 819.29347, 819.311046, 819.328619, 819.34619, 819.3637580000001, 819.381324, 819.398887, 819.4164470000001, 819.434005, 819.45156, 819.469112, 819.4866619999999, 819.504209, 819.521754, 819.539295, 819.556835, 819.5743709999999, 819.591906, 819.609437, 819.6269659999999, 819.644492, 819.662016, 819.679537, 819.697055, 819.714571, 819.732084, 819.749595, 819.767103, 819.7846079999999, 819.802111, 819.819611, 819.837108, 819.854604, 819.8720959999999, 819.8895859999999, 819.907073, 819.9245569999999, 819.9420389999999, 819.959519, 819.976996, 819.99447, 820.011942, 820.029411, 820.046877, 820.064341, 820.081802, 820.099261, 820.116717, 820.1341709999999, 820.151622, 820.1690699999999, 820.186516, 820.2039599999999, 820.2214, 820.238838, 820.256274, 820.273707, 820.2911369999999, 820.308565, 820.325991, 820.343413, 820.3608340000001, 820.378251, 820.395666, 820.413079, 820.4304890000001, 820.447896, 820.4653010000001, 820.482703, 820.500103, 820.5175, 820.534895, 820.552287, 820.569676, 820.587063, 820.6044479999999, 820.6218299999999, 820.6392089999999, 820.656586, 820.67396, 820.691332, 820.708701, 820.726067, 820.743431, 820.760793, 820.778152, 820.7955089999999, 820.812863, 820.830214, 820.8475629999999, 820.864909, 820.8822529999999, 820.899594, 820.916933, 820.934269, 820.951603, 820.968934, 820.986263, 821.003589, 821.020913, 821.038234, 821.055553, 821.072869, 821.0901819999999, 821.107493, 821.124802, 821.142108, 821.159412, 821.176713, 821.1940109999999, 821.211307, 821.2286009999999, 821.2458919999999, 821.2631799999999, 821.280466, 821.2977500000001, 821.315031, 821.332309, 821.3495849999999, 821.366859, 821.38413, 821.401399, 821.418665, 821.435928, 821.453189, 821.470448, 821.487704, 821.504958, 821.522209, 821.539457, 821.5567030000001, 821.573947, 821.591188, 821.608427, 821.6256629999999, 821.6428970000001, 821.660128, 821.677357, 821.694583, 821.711807, 821.729029, 821.7462469999999, 821.763464, 821.780678, 821.7978889999999, 821.8150979999999, 821.832305, 821.849509, 821.866711, 821.88391, 821.901106, 821.9183009999999, 821.9354920000001, 821.952682, 821.969869, 821.987053, 822.004235, 822.021415, 822.038592, 822.055766, 822.072938, 822.090108, 822.107275, 822.1244399999999, 822.141603, 822.158763, 822.1759199999999, 822.193075, 822.2102279999999, 822.227378, 822.244526, 822.261671, 822.278814, 822.2959539999999, 822.313092, 822.330228, 822.3473610000001, 822.3644909999999, 822.38162, 822.398745, 822.4158689999999, 822.43299, 822.4501079999999, 822.467224, 822.484338, 822.501449, 822.518558, 822.535665, 822.5527689999999, 822.56987, 822.586969, 822.604066, 822.6211599999999, 822.638252, 822.655342, 822.672429, 822.689514, 822.706596, 822.723676, 822.740753, 822.7578279999999, 822.7749009999999, 822.791971, 822.809039, 822.826104, 822.843167, 822.860228, 822.8772859999999, 822.8943419999999, 822.911395, 822.928446, 822.945495, 822.962541, 822.979585, 822.996627, 823.0136660000001, 823.0307019999999, 823.047737, 823.064769, 823.081798, 823.0988249999999, 823.1158499999999, 823.1328719999999, 823.149892, 823.1669099999999, 823.183925, 823.2009380000001, 823.217948, 823.2349559999999, 823.2519619999999, 823.268965, 823.285966, 823.302965, 823.319961, 823.336955, 823.353946, 823.370936, 823.387922, 823.404907, 823.421889, 823.438868, 823.455846, 823.472821, 823.489793, 823.506763
[...]
876, 837.2907379999999, 837.3045989999999, 837.318459, 837.332319, 837.346178, 837.3600369999999, 837.3738950000001, 837.387752, 837.401609, 837.4154649999999, 837.429321, 837.443176, 837.457031, 837.470884, 837.484738, 837.49859, 837.512442, 837.526294, 837.5401449999999, 837.553995, 837.567845, 837.581694, 837.595543, 837.609391, 837.623238, 837.637085, 837.650931, 837.664777, 837.678622, 837.692466, 837.7063099999999, 837.720153, 837.7339959999999, 837.747838, 837.761679, 837.77552, 837.789361, 837.8032, 837.817039, 837.830878, 837.844716, 837.858553, 837.87239, 837.886226, 837.9000619999999, 837.9138969999999, 837.9277309999999, 837.9415650000001, 837.955398, 837.9692309999999, 837.983063, 837.996894, 838.010725, 838.024556, 838.0383850000001, 838.0522139999999, 838.0660429999999, 838.079871, 838.093698, 838.1075249999999, 838.1213509999999, 838.1351769999999, 838.149002, 838.162826, 838.17665, 838.190473, 838.204296, 838.218118, 838.23194, 838.245761, 838.2595809999999, 838.273401, 838.2872199999999, 838.301039, 838.314857, 838.328674, 838.342491, 838.3563069999999, 838.370123, 838.383938, 838.397753, 838.411567, 838.42538, 838.439193, 838.453005, 838.466817, 838.480628, 838.494438, 838.508248, 838.522057, 838.5358659999999, 838.549674, 838.5634819999999, 838.577289, 838.5910949999999, 838.6049009999999, 838.618706, 838.632511, 838.646315, 838.6601179999999, 838.6739210000001, 838.687724, 838.701525, 838.7153269999999, 838.729127, 838.742927, 838.7567270000001, 838.770526, 838.784324, 838.798122, 838.811919, 838.8257150000001, 838.839511, 838.8533070000001, 838.867102, 838.880896, 838.8946900000001, 838.9084829999999, 838.922275, 838.936067, 838.949859, 838.9636489999999, 838.97744, 838.991229, 839.0050180000001, 839.0188069999999, 839.032595, 839.046382, 839.060169, 839.0739550000001, 839.087741, 839.1015259999999, 839.1153099999999, 839.129094, 839.142878, 839.15666, 839.170443, 839.184224, 839.198005, 839.211786, 839.225566, 839.239345, 839.253124, 839.266902, 839.28068, 839.2944570000001, 839.308233, 839.322009, 839.3357849999999, 839.349559, 839.3633339999999, 839.377107, 839.3908799999999, 839.4046529999999, 839.418425, 839.432196, 839.445967, 839.459737, 839.473507, 839.487276, 839.501044, 839.514812, 839.5285799999999, 839.542346, 839.556113, 839.569878, 839.5836429999999, 839.597408, 839.611172, 839.624935, 839.638698, 839.65246, 839.666222, 839.679983, 839.6937439999999, 839.7075040000001, 839.721263, 839.7350220000001, 839.74878, 839.762538, 839.7762949999999, 839.790052, 839.803808, 839.817563, 839.831318, 839.845073, 839.8588259999999, 839.872579, 839.8863319999999, 839.900084, 839.9138360000001, 839.927587, 839.941337, 839.9550869999999, 839.968836, 839.982585, 839.9963329999999, 840.01008, 840.023828, 840.037574, 840.05132, 840.065065, 840.07881, 840.0925540000001, 840.106298, 840.120041, 840.133783, 840.147525, 840.1612670000001, 840.175007, 840.1887479999999, 840.2024879999999, 840.216227, 840.229965, 840.243703, 840.257441, 840.271178, 840.2849140000001, 840.2986500000001, 840.3123850000001, 840.32612, 840.339854, 840.353587, 840.3673200000001, 840.381053, 840.394785, 840.408516, 840.422247, 840.435977, 840.449706, 840.4634359999999, 840.477164, 840.490892, 840.5046189999999, 840.518346, 840.532073, 840.545798, 840.559523, 840.5732479999999, 840.586972, 840.600696, 840.614419, 840.628141, 840.641863, 840.655584, 840.669305, 840.683025, 840.696745, 840.710464, 840.7241819999999, 840.7379, 840.751618, 840.7653339999999, 840.779051, 840.792767, 840.806482, 840.820196, 840.83391, 840.847624, 840.8613369999999, 840.875049, 840.8887609999999, 840.902473, 840.916183, 840.929894, 840.943603, 840.957312, 840.971021, 840.984729, 840.998436, 841.012143, 841.02585, 841.0395550000001, 841.053261, 841.066965, 841.080669, 841.094373, 841.108076, 841.121779, 841.13548, 841.149182, 841.162883, 841.1765829999999, 841.190283, 841.203982, 841.2176810000001, 841.231379, 841.2450759999999, 841.2587729999999, 841.27247, 841.286166, 841.299861, 841.313556, 841.3272499999999, 841.340944, 841.354637, 841.36833, 841.382022, 841.395713, 841.409404, 841.423095, 841.436784, 841.450474, 841.464162, 841.477851, 841.491538, 841.505226, 841.5189119999999, 841.532598, 841.546284, 841.5599689999999, 841.5736529999999, 841.5873369999999, 841.6010200000001, 841.614703, 841.628385, 841.642067, 841.655748, 841.6694289999999, 841.683109, 841.696788, 841.710467, 841.724146, 841.7378239999999, 841.751501, 841.7651779999999, 841.7788539999999, 841.7925299999999, 841.806205, 841.8198799999999, 841.833554, 841.847227, 841.8609, 841.8745729999999, 841.888245, 841.9019159999999, 841.915587, 841.929257, 841.9429269999999, 841.9565959999999, 841.970265, 841.983933, 841.9976009999999, 842.011268, 842.024934, 842.0386, 842.052266, 842.065931, 842.0795949999999, 842.093259, 842.106922, 842.120585, 842.134247, 842.147909, 842.16157, 842.17523, 842.1888899999999, 842.20255, 842.216209, 842.229867, 842.243525, 842.257182, 842.270839, 842.284496, 842.2981510000001, 842.3118069999999, 842.325461, 842.339115, 842.352769, 842.366422, 842.380075, 842.393727, 842.407378, 842.421029, 842.434679, 842.448329, 842.4619779999999, 842.475627, 842.489275, 842.5029229999999, 842.51657, 842.530217, 842.543863, 842.557509, 842.571154, 842.584798, 842.598442, 842.612086, 842.625728, 842.639371, 842.653013, 842.666654, 842.680295, 842.693935, 842.707575, 842.721214, 842.7348529999999, 842.7484910000001, 842.7621280000001, 842.775765, 842.789402, 842.803038, 842.8166729999999, 842.8303080000001, 842.843942, 842.857576, 842.87121, 842.8848429999999, 842.898475, 842.912106, 842.925738, 842.9393680000001, 842.952999, 842.966628, 842.9802569999999, 842.993886, 843.0075139999999, 843.0211410000001, 843.034768, 843.0483949999999, 843.0620210000001, 843.0756459999999, 843.0892709999999, 843.102895, 843.1165189999999, 843.130142, 843.1437649999999, 843.157387, 843.1710089999999, 843.18463, 843.198251, 843.211871, 843.22549, 843.239109, 843.2527279999999, 843.266346, 843.279963, 843.29358, 843.307197, 843.3208129999999, 843.334428, 843.348043, 843.3616569999999, 843.375271, 843.388884, 843.402497, 843.416109, 843.429721, 843.4433319999999, 843.4569429999999, 843.470553, 843.484162, 843.497771, 843.51138, 843.524988, 843.538596, 843.552202, 843.565809, 843.5794149999999, 843.59302, 843.606625, 843.62023, 843.633833, 843.647437, 843.661039, 843.674642, 843.6882429999999, 843.7018449999999, 843.7154449999999, 843.7290459999999, 843.7426449999999, 843.756244, 843.769843, 843.783441, 843.797039, 843.8106359999999, 843.8242319999999, 843.837828, 843.851424, 843.865019, 843.878613, 843.892207, 843.905801, 843.9193929999999, 843.932986, 843.9465779999999, 843.9601690000001, 843.97376, 843.98735, 844.00094, 844.0145289999999, 844.028118, 844.041706, 844.055294, 844.0688809999999, 844.082468, 844.096054, 844.10964, 844.123225, 844.136809, 844.150393, 844.163977, 844.17756, 844.191143, 844.2047249999999, 844.218306, 844.2318869999999, 844.245468, 844.2590479999999, 844.272627, 844.286206, 844.299784, 844.313362, 844.3269399999999, 844.340516, 844.3540929999999, 844.367669, 844.381244, 844.394819, 844.408393, 844.421967, 844.43554, 844.449113, 844.462685, 844.4762569999999, 844.489828, 844.5033990000001, 844.5169689999999, 844.530539, 844.544108, 844.557676, 844.571245, 844.584812, 844.598379, 844.611946, 844.625512, 844.6390769999999, 844.652643, 844.666207, 844.679771, 844.6933349999999, 844.7068979999999, 844.72046, 844.734022, 844.7475840000001, 844.7611449999999, 844.7747049999999, 844.788265, 844.801825, 844.815383, 844.828942, 844.8425000000001, 844.856057, 844.8696140000001, 844.883171, 844.896726, 844.9102819999999, 844.9238369999999, 844.9373909999999, 844.950945, 844.9644979999999, 844.9780509999999, 844.9916029999999, 845.005155, 845.018706, 845.032257, 845.045808, 845.059357, 845.072907, 845.086455, 845.1000039999999, 845.1135509999999, 845.127099, 845.140645, 845.154192, 845.167737, 845.1812829999999, 845.194827, 845.2083709999999, 845.221915, 845.235458, 845.249001, 845.262543, 845.276085, 845.289626, 845.3031669999999, 845.316707, 845.330247, 845.343786, 845.357324, 845.370863, 845.3844, 845.397937, 845.411474, 845.42501, 845.438546, 845.452081, 845.4656160000001, 845.4791499999999, 845.492683, 845.506216, 845.519749, 845.533281, 845.546813, 845.560344, 845.5738739999999, 845.587404, 845.600934, 845.614463, 845.6279920000001, 845.64152, 845.655048, 845.668575, 845.682101, 845.695627, 845.709153, 845.722678, 845.7362029999999, 845.7497269999999, 845.76325, 845.7767729999999, 845.790296, 845.803818, 845.81734, 845.830861, 845.844381, 845.857901, 845.8714209999999, 845.88494, 845.898459, 845.911977, 845.925494, 845.9390119999999, 845.9525279999999, 845.966044, 845.97956, 845.993075, 846.00659, 846.0201040000001, 846.033617, 846.0471299999999, 846.0606429999999, 846.074155, 846.087667, 846.1011779999999, 846.114689, 846.128199, 846.141708, 846.155218, 846.168726, 846.182234, 846.195742, 846.209249, 846.222756, 846.236262, 846.2497679999999, 846.263273, 846.276778, 846.2902819999999, 846.303786, 846.317289, 846.3307920000001, 846.344294, 846.357796, 846.371297, 846.384797, 846.398298, 846.411797, 846.425297, 846.4387949999999, 846.4522939999999, 846.4657920000001, 846.479289, 846.492786, 846.5062819999999, 846.519778, 846.533273, 846.5467679999999, 846.560262, 846.5737559999999, 846.587249, 846.600742, 846.614235, 846.6277269999999, 846.641218, 846.6547089999999, 846.668199, 846.6816889999999, 846.695179, 846.708668, 846.722156, 846.735644, 846.749131, 846.762618, 846.776105, 846.789591, 846.803076, 846.816561, 846.830046, 846.84353, 846.857013, 846.870497, 846.883979, 846.8974609999999, 846.910943, 846.924424, 846.937905, 846.951385, 846.964864, 846.978343, 846.991822, 847.0052999999999, 847.018778, 847.032255, 847.0457319999999, 847.059208, 847.072684, 847.086159, 847.0996339999999, 847.1131079999999, 847.126582, 847.140055, 847.1535279999999, 847.1670009999999, 847.180472, 847.193944, 847.207415, 847.2208850000001, 847.2343549999999, 847.2478239999999, 847.2612929999999, 847.2747619999999, 847.28823, 847.301697, 847.315164, 847.328631, 847.342097, 847.355563, 847.369028, 847.3824920000001, 847.395956, 847.40942, 847.422883, 847.436346, 847.449808, 847.46327, 847.476731, 847.490191, 847.503652, 847.517112, 847.5305709999999, 847.54403, 847.5574879999999, 847.570946, 847.5844030000001, 847.59786, 847.6113159999999, 847.624772, 847.638228, 847.651683, 847.665137, 847.678591, 847.6920449999999, 847.7054979999999, 847.71895, 847.732402, 847.745854, 847.7593049999999, 847.772756, 847.786206, 847.7996549999999, 847.813105, 847.826553, 847.8400019999999, 847.8534490000001, 847.8668969999999, 847.880343, 847.89379, 847.907235, 847.920681, 847.934126, 847.9475699999999, 847.961014, 847.974458, 847.987901, 848.0013429999999, 848.0147850000001, 848.028227, 848.041668, 848.0551079999999, 848.068548, 848.081988, 848.095427, 848.108866, 848.122304, 848.1357419999999, 848.149179, 848.162616, 848.176052, 848.189488, 848.2029229999999, 848.2163579999999, 848.229793, 848.243226, 848.25666, 848.270093, 848.283525, 848.2969569999999, 848.310389, 848.32382, 848.337251, 848.350681, 848.36411, 848.37754, 848.390968, 848.404397, 848.417824, 848.431252, 848.444678, 848.4581049999999, 848.4715309999999, 848.4849559999999, 848.498381, 848.511805, 848.5252290000001, 848.538653, 848.552076, 848.565498, 848.57892, 848.592342, 848.605763, 848.619184, 848.6326039999999, 848.646024, 848.6594429999999, 848.672862, 848.68628, 848.699698, 848.713115, 848.726532, 848.739949, 848.7533649999999, 848.76678, 848.780195, 848.79361, 848.807024, 848.820438, 848.833851, 848.847263, 848.860676, 848.874087, 848.887499, 848.9009090000001, 848.91432, 848.92773, 848.941139, 848.954548, 848.9679570000001, 848.981365, 848.9947719999999, 849.008179, 849.021586, 849.034992, 849.048398, 849.0618029999999, 849.075208, 849.0886119999999, 849.102016, 849.115419, 849.1288219999999, 849.1422239999999, 849.155626, 849.169028, 849.182428, 849.195829, 849.2092289999999, 849.222629, 849.2360279999999, 849.249427, 849.262825, 849.276222, 849.2896199999999, 849.303017, 849.316413, 849.329809, 849.3432039999999, 849.3565990000001, 849.369994, 849.383388, 849.396781, 849.410174, 849.4235669999999, 849.436959, 849.450351, 849.4637419999999, 849.477133, 849.490523, 849.503913, 849.517302, 849.5306909999999, 849.54408, 849.557468, 849.5708549999999, 849.584243, 849.597629, 849.611015, 849.624401, 849.6377859999999, 849.651171, 849.6645550000001, 849.6779389999999, 849.691323, 849.7047049999999, 849.718088, 849.7314700000001, 849.744852, 849.7582329999999, 849.771613, 849.784993, 849.7983730000001, 849.8117520000001, 849.8251309999999, 849.8385099999999, 849.851887, 849.865265, 849.8786419999999, 849.892018, 849.905394, 849.91877, 849.932145, 849.94552, 849.958894, 849.972268, 849.985641, 849.999014, 850.012386, 850.025758, 850.039129, 850.0525, 850.0658709999999, 850.079241, 850.092611, 850.10598, 850.1193489999999, 850.1327170000001, 850.146085, 850.159452, 850.172819, 850.1861849999999, 850.1995509999999, 850.212917, 850.2262820000001, 850.239646, 850.2530109999999, 850.266374, 850.279738, 850.2931, 850.306463, 850.319825, 850.333186, 850.346547, 850.3599069999999, 850.373267, 850.386627, 850.399986, 850.4133449999999, 850.426703, 850.440061, 850.4534179999999, 850.466775, 850.480132, 850.4934870000001, 850.506843, 850.5201979999999, 850.533553, 850.546907, 850.560261, 850.5736139999999, 850.586967, 850.600319, 850.613671, 850.6270219999999, 850.640373, 850.653724, 850.667074, 850.680424, 850.6937730000001, 850.7071219999999, 850.72047, 850.733818, 850.747165, 850.7605120000001, 850.773858, 850.787204, 850.8005499999999, 850.813895, 850.82724, 850.8405839999999, 850.853928, 850.8672710000001, 850.880614, 850.8939559999999, 850.907298, 850.9206399999999, 850.9339809999999, 850.947322, 850.960662, 850.9740019999999, 850.9873409999999, 851.00068, 851.014018, 851.0273559999999, 851.040694, 851.054031, 851.067367, 851.0807030000001, 851.094039, 851.107374, 851.120709, 851.1340429999999, 851.147377, 851.160711, 851.174044, 851.1873760000001, 851.200709, 851.21404, 851.227371, 851.2407019999999, 851.254033, 851.267363, 851.280692, 851.2940209999999, 851.307349, 851.3206779999999, 851.3340049999999, 851.347332, 851.360659, 851.3739850000001, 851.387311, 851.400637, 851.413962, 851.427286, 851.440611, 851.453934, 851.467257, 851.48058, 851.4939019999999, 851.507224, 851.5205460000001, 851.533867, 851.547187, 851.5605069999999, 851.5738269999999, 851.587146, 851.600465, 851.613783, 851.627101, 851.640419, 851.653736, 851.667052, 851.6803689999999, 851.693684, 851.706999, 851.720314, 851.7336290000001, 851.746943, 851.760256, 851.773569, 851.786882, 851.8001939999999, 851.8135060000001, 851.8268169999999, 851.8401279999999, 851.853438, 851.8667479999999, 851.880057, 851.893366, 851.906675, 851.919983, 851.933291, 851.946598, 851.9599049999999, 851.973212, 851.986518, 851.999823, 852.0131279999999, 852.026433, 852.039737, 852.053041, 852.066344, 852.079647, 852.09295, 852.106252, 852.119553, 852.132855, 852.146155, 852.159455, 852.1727549999999, 852.186055, 852.199354, 852.2126519999999, 852.22595, 852.239248, 852.252545, 852.265842, 852.279138, 852.292434, 852.3057299999999, 852.319025, 852.332319, 852.345614, 852.358907, 852.372201, 852.385494, 852.398786, 852.412078, 852.4253689999999, 852.438661, 852.451951, 852.465241, 852.478531, 852.491821, 852.50511, 852.5183979999999, 852.5316859999999, 852.5449739999999, 852.558261, 852.571548, 852.5848339999999, 852.59812, 852.611406, 852.624691, 852.637975, 852.651259, 852.664543, 852.677826, 852.691109, 852.704392, 852.717674, 852.730955, 852.744236, 852.757517, 852.770797, 852.784077, 852.797357, 852.8106359999999, 852.823914, 852.837192, 852.85047, 852.863747, 852.877024, 852.8903, 852.9035759999999, 852.916852, 852.930127, 852.943402, 852.956676, 852.9699499999999, 852.983223, 852.996496, 853.0097679999999, 853.023041, 853.036312, 853.049584, 853.062854, 853.0761249999999, 853.089395, 853.102664, 853.1159329999999, 853.129202, 853.14247, 853.1557379999999, 853.169005, 853.1822719999999, 853.1955389999999, 853.208805, 853.22207, 853.235336, 853.2486, 853.261865, 853.275129, 853.2883919999999, 853.301655, 853.314918, 853.32818, 853.3414419999999, 853.3547030000001, 853.367964, 853.381225, 853.394485, 853.407745, 853.4210039999999, 853.434263, 853.4475209999999, 853.4607789999999, 853.4740360000001, 853.487294, 853.50055, 853.513807, 853.5270619999999, 853.540318, 853.553573, 853.566827, 853.5800810000001, 853.593335, 853.606588, 853.619841, 853.6330939999999, 853.646346, 853.6595970000001, 853.6728479999999, 853.686099, 853.699349, 853.712599, 853.725849, 853.739098, 853.752346, 853.7655950000001, 853.7788419999999, 853.79209, 853.805337, 853.818583, 853.831829, 853.845075, 853.8583199999999, 853.871565, 853.8848089999999, 853.898053, 853.911297, 853.92454, 853.937783, 853.951025, 853.9642670000001, 853.9775080000001, 853.990749, 854.00399, 854.0172299999999, 854.0304699999999, 854.043709, 854.0569479999999, 854.0701859999999, 854.083424, 854.096662, 854.109899, 854.1231359999999, 854.136372, 854.149608, 854.162844, 854.176079, 854.189314, 854.202548, 854.215782, 854.229016, 854.242248, 854.255481, 854.2687129999999, 854.281945, 854.2951760000001, 854.308407, 854.321638, 854.334868, 854.3480979999999, 854.361327, 854.374556, 854.387784, 854.4010119999999, 854.41424, 854.427467, 854.440694, 854.4539199999999, 854.467146, 854.480371, 854.4935959999999, 854.506821, 854.520045, 854.533269, 854.5464929999999, 854.559716, 854.572938, 854.58616, 854.599382, 854.6126029999999, 854.625824, 854.639045, 854.652265, 854.6654849999999, 854.678704, 854.691923, 854.7051409999999, 854.718359, 854.731577, 854.744794, 854.758011, 854.771227, 854.784443, 854.7976590000001, 854.810874, 854.824088, 854.837303, 854.850516, 854.86373, 854.876943, 854.8901559999999, 854.903368, 854.9165800000001, 854.929791, 854.943002, 854.956213, 854.969423, 854.982632, 854.995842, 855.009051, 855.022259, 855.0354669999999, 855.048675, 855.061882, 855.0750889999999, 855.088295, 855.101501, 855.1147070000001, 855.127912, 855.1411169999999, 855.154321, 855.1675250000001, 855.1807289999999, 855.193932, 855.207135, 855.220337, 855.233539, 855.2467409999999, 855.259942, 855.273142, 855.2863429999999, 855.299542, 855.312742, 855.3259410000001, 855.3391399999999, 855.3523379999999]
units = mV
target = 700
penalty = pass
calcrec = typical
Adding new result set schematic for Vg
Watchproc found nothing in the queue; will wait longer.
Watchproc found nothing in the queue; will wait longer.
Watchproc found nothing in the queue; will wait longer.
Watchproc found nothing in the queue; will wait longer.
Watchproc found nothing in the queue; will wait longer.
Watchproc found nothing in the queue; will wait longer.
Watchproc found nothing in the queue; will wait longer.
Watchproc found nothing in the queue; will wait longer.
Watchproc found nothing in the queue; will wait longer.
Watchproc found nothing in the queue; will wait longer.
Watchproc found nothing in the queue; will wait longer.
Watchproc found nothing in the queue; will wait longer.
Watchproc found nothing in the queue; will wait longer.
Watchproc found nothing in the queue; will wait longer.
Watchproc found nothing in the queue; will wait longer.
Watchproc found nothing in the queue; will wait longer.
Watchproc found nothing in the queue; will wait longer.
Watchproc found nothing in the queue; will wait longer.
Watchproc found nothing in the queue; will wait longer.
Watchproc found nothing in the queue; will wait longer.
Watchproc found nothing in the queue; will wait longer.
Watchproc found nothing in the queue; will wait longer.
Watchproc found nothing in the queue; will wait longer.
Simulation of Vg has completed.
Now waiting to join process
no datasheet_anno, so there are no results to save.
