******
** ngspice-42 : Circuit level simulation program
** Compiled with Sparse Direct Linear Solver
** The U. C. Berkeley CAD Group
** Copyright 1985-1994, Regents of the University of California.
** Copyright 2001-2023, The ngspice team.
** Please get your ngspice manual from https://ngspice.sourceforge.io/docs.html
** Please file your bug-reports at http://ngspice.sourceforge.net/bugrep.html
** Creation Date: Sun Mar 10 02:59:47 UTC 2024
******
||: No such file or directory

Note: No compatibility mode selected!


Circuit: ** sch_path: /home/cmaier/eda/efabless/chipalooza2024/sky130_cm_ip__biasgen/xschem/test_iswitch.sch

Doing analysis at TEMP = -40.000000 and TNOM = 27.000000

Note: ibias: dc value used for op instead of transient time=0 value.

Initial Transient Solution
--------------------------

Node                                   Voltage
----                                   -------
vdda                                       3.3
in                                     1.12538
res                                     100000
ofs                                          1
vpc                                      1.277
xdut.igated                            1.12219
vpb                                    1.76313
xdut.xsrc.vgoff[2]                         3.3
xdut.xsrc.xlvl[2].ab               1.84647e-09
xdut.xsrc.vgon[2]                  1.70767e-12
xdut.xsrc.xlvl[2].abb                      1.8
en[2]                                      1.8
vddd                                       1.8
xdut.xsrc.vgoff[1]                         3.3
xdut.xsrc.xlvl[1].ab               1.84647e-09
xdut.xsrc.vgon[1]                  1.70767e-12
xdut.xsrc.xlvl[1].abb                      1.8
en[1]                                      1.8
xdut.xsrc.x0.vsw                         1.277
xdut.xsrc.x0.vd                        2.54088
out[2]                                 1.10066
xdut.xsrc.xsrc[2].vsw                    1.277
xdut.xsrc.xsrc[2].vd                   2.52469
out[1]                                 1.10066
xdut.xsrc.xsrc[1].vsw                    1.277
xdut.xsrc.xsrc[1].vd                   2.52469
xdut.xpower.off                    1.70767e-12
xdut.xpower.on                             3.3
xdut.xpower.xlvl.ab                1.84647e-09
xdut.xpower.xlvl.abb                       1.8
poweron                                    1.8
vpoweron#branch                              0
ven[1]#branch                                0
ven[2]#branch                                0
vddd#branch                        -6.8586e-12
vofs#branch                                  0
vres#branch                                  0
vdda#branch                       -5.02054e-06

 Reference value :  1.19845e-03
No. of Data Rows : 121955
binary raw file "test_iswitch.raw"
ngspice 50 -> 

